<?xml version="1.0" encoding="UTF-8"?>

<!-- generated on 2024-03-29 19:29:16.291921 by osmWebWizard.py cecae229d
<configuration>
    <net-file value="/home/etensor/Tesis/sumo/sumo/tools/2024-03-29-19-29-14/osm.net.xml.gz"/>
    <output-trip-file value="/home/etensor/Tesis/sumo/sumo/tools/2024-03-29-19-29-14/osm.motorcycle.trips.xml"/>
    <route-file value="/home/etensor/Tesis/sumo/sumo/tools/2024-03-29-19-29-14/osm.motorcycle.rou.xml"/>
    <prefix value="motorcycle"/>
    <trip-attributes value="departLane=&quot;best&quot;"/>
    <fringe-start-attributes value="departSpeed=&quot;max&quot;"/>
    <vehicle-class value="motorcycle"/>
    <fringe-factor value="2"/>
    <vclass value="motorcycle"/>
    <via-edge-types value="highway.motorway,highway.motorway_link,highway.trunk_link,highway.primary_link,highway.secondary_link,highway.tertiary_link"/>
    <max-distance value="1200.0"/>
    <remove-loops value="True"/>
    <validate value="True"/>
    <insertion-density value="100.0"/>
</configuration>
-->

<!-- generated on 2024-03-29 19:29:16 by Eclipse SUMO duarouter Version 1.19.0
<configuration xmlns:xsi="http://www.w3.org/2001/XMLSchema-instance" xsi:noNamespaceSchemaLocation="http://sumo.dlr.de/xsd/duarouterConfiguration.xsd">

    <input>
        <net-file value="/home/etensor/Tesis/sumo/sumo/tools/2024-03-29-19-29-14/osm.net.xml.gz"/>
        <route-files value="/home/etensor/Tesis/sumo/sumo/tools/2024-03-29-19-29-14/osm.motorcycle.trips.xml"/>
    </input>

    <output>
        <output-file value="/home/etensor/Tesis/sumo/sumo/tools/2024-03-29-19-29-14/osm.motorcycle.trips.xml.tmp"/>
        <alternatives-output value="NUL"/>
        <write-trips value="true"/>
    </output>

    <processing>
        <remove-loops value="true"/>
    </processing>

    <time>
        <begin value="0.0"/>
        <end value="3600.0"/>
    </time>

    <report>
        <no-warnings value="true"/>
        <ignore-errors value="true"/>
        <no-step-log value="true"/>
    </report>

</configuration>
-->

<routes xmlns:xsi="http://www.w3.org/2001/XMLSchema-instance" xsi:noNamespaceSchemaLocation="http://sumo.dlr.de/xsd/routes_file.xsd">
    <vType id="motorcycle_motorcycle" vClass="motorcycle"/>
    <trip id="motorcycle0" type="motorcycle_motorcycle" depart="0.00" departLane="best" departSpeed="max" from="570129391" to="356393276#0"/>
    <trip id="motorcycle1" type="motorcycle_motorcycle" depart="3.87" departLane="best" departSpeed="max" from="408747258" to="408747258-AddedOffRampEdge"/>
    <trip id="motorcycle4" type="motorcycle_motorcycle" depart="15.49" departLane="best" departSpeed="max" from="570129387" to="356393276#0"/>
    <trip id="motorcycle5" type="motorcycle_motorcycle" depart="19.36" departLane="best" departSpeed="max" from="408747258" to="570129388-AddedOnRampEdge"/>
    <trip id="motorcycle7" type="motorcycle_motorcycle" depart="27.10" departLane="best" departSpeed="max" from="570129391" to="570129388-AddedOnRampEdge"/>
    <trip id="motorcycle9" type="motorcycle_motorcycle" depart="34.84" departLane="best" from="571505150" to="356393276#0"/>
    <trip id="motorcycle10" type="motorcycle_motorcycle" depart="38.71" departLane="best" from="571505150" to="572479039#0"/>
    <trip id="motorcycle13" type="motorcycle_motorcycle" depart="50.33" departLane="best" departSpeed="max" from="356854809" to="356393276#0"/>
    <trip id="motorcycle15" type="motorcycle_motorcycle" depart="58.07" departLane="best" from="571505150" to="572479039#0"/>
    <trip id="motorcycle17" type="motorcycle_motorcycle" depart="65.81" departLane="best" departSpeed="max" from="570129387" to="570129388-AddedOnRampEdge"/>
    <trip id="motorcycle20" type="motorcycle_motorcycle" depart="77.43" departLane="best" from="570129394#0" to="356393276#0"/>
    <trip id="motorcycle21" type="motorcycle_motorcycle" depart="81.30" departLane="best" departSpeed="max" from="408747258" to="570129379"/>
    <trip id="motorcycle23" type="motorcycle_motorcycle" depart="89.04" departLane="best" departSpeed="max" from="356854809" to="570129379"/>
    <trip id="motorcycle24" type="motorcycle_motorcycle" depart="92.92" departLane="best" departSpeed="max" from="570129391" to="570129379"/>
    <trip id="motorcycle25" type="motorcycle_motorcycle" depart="96.79" departLane="best" from="408747258-AddedOffRampEdge" to="408747258-AddedOffRampEdge"/>
    <trip id="motorcycle26" type="motorcycle_motorcycle" depart="100.66" departLane="best" departSpeed="max" from="408747258" to="572479039#2-AddedOnRampEdge"/>
    <trip id="motorcycle29" type="motorcycle_motorcycle" depart="112.27" departLane="best" from="356854809-AddedOffRampEdge" to="570129388"/>
    <trip id="motorcycle32" type="motorcycle_motorcycle" depart="123.89" departLane="best" from="572479039#0" to="572479039#2"/>
    <trip id="motorcycle33" type="motorcycle_motorcycle" depart="127.76" departLane="best" departSpeed="max" from="408747258" to="356393276#0"/>
    <trip id="motorcycle34" type="motorcycle_motorcycle" depart="131.63" departLane="best" from="408747258-AddedOffRampEdge" to="570129379"/>
    <trip id="motorcycle37" type="motorcycle_motorcycle" depart="143.24" departLane="best" departSpeed="max" from="570129391" to="570129388"/>
    <trip id="motorcycle39" type="motorcycle_motorcycle" depart="150.99" departLane="best" departSpeed="max" from="408747258" to="408747258-AddedOffRampEdge"/>
    <trip id="motorcycle41" type="motorcycle_motorcycle" depart="158.73" departLane="best" departSpeed="max" from="570129391" to="572479039#2-AddedOnRampEdge"/>
    <trip id="motorcycle43" type="motorcycle_motorcycle" depart="166.47" departLane="best" from="572479049#0" to="570129388-AddedOnRampEdge"/>
    <trip id="motorcycle44" type="motorcycle_motorcycle" depart="170.34" departLane="best" departSpeed="max" from="356854809" to="356393276#0"/>
    <trip id="motorcycle47" type="motorcycle_motorcycle" depart="181.96" departLane="best" departSpeed="max" from="356854809" to="570129388"/>
    <trip id="motorcycle48" type="motorcycle_motorcycle" depart="185.83" departLane="best" from="572479049#0" to="570129388-AddedOnRampEdge"/>
    <trip id="motorcycle51" type="motorcycle_motorcycle" depart="197.44" departLane="best" departSpeed="max" from="570129391" to="570129388-AddedOnRampEdge"/>
    <trip id="motorcycle52" type="motorcycle_motorcycle" depart="201.32" departLane="best" departSpeed="max" from="408747258" to="571505150"/>
    <trip id="motorcycle53" type="motorcycle_motorcycle" depart="205.19" departLane="best" departSpeed="max" from="356854809" to="570129388"/>
    <trip id="motorcycle54" type="motorcycle_motorcycle" depart="209.06" departLane="best" departSpeed="max" from="570129387" to="572479049#0"/>
    <trip id="motorcycle57" type="motorcycle_motorcycle" depart="220.67" departLane="best" from="572479039#2-AddedOnRampEdge" to="572479039#2"/>
    <trip id="motorcycle58" type="motorcycle_motorcycle" depart="224.54" departLane="best" departSpeed="max" from="408747258" to="571505150"/>
    <trip id="motorcycle62" type="motorcycle_motorcycle" depart="240.03" departLane="best" departSpeed="max" from="356854809" to="570129379"/>
    <trip id="motorcycle63" type="motorcycle_motorcycle" depart="243.90" departLane="best" departSpeed="max" from="356854809" to="572479039#2-AddedOnRampEdge"/>
    <trip id="motorcycle64" type="motorcycle_motorcycle" depart="247.77" departLane="best" from="572479039#2-AddedOnRampEdge" to="572479039#2"/>
    <trip id="motorcycle65" type="motorcycle_motorcycle" depart="251.64" departLane="best" departSpeed="max" from="408747258" to="356393276#0"/>
    <trip id="motorcycle67" type="motorcycle_motorcycle" depart="259.39" departLane="best" departSpeed="max" from="356854809" to="570129388"/>
    <trip id="motorcycle68" type="motorcycle_motorcycle" depart="263.26" departLane="best" departSpeed="max" from="356854809" to="572479039#2"/>
    <trip id="motorcycle70" type="motorcycle_motorcycle" depart="271.00" departLane="best" departSpeed="max" from="570129387" to="570129388-AddedOnRampEdge"/>
    <trip id="motorcycle71" type="motorcycle_motorcycle" depart="274.87" departLane="best" departSpeed="max" from="408747258" to="572479039#2"/>
    <trip id="motorcycle74" type="motorcycle_motorcycle" depart="286.49" departLane="best" departSpeed="max" from="408747258" to="570129379"/>
    <trip id="motorcycle76" type="motorcycle_motorcycle" depart="294.23" departLane="best" departSpeed="max" from="570129387" to="570129388-AddedOnRampEdge"/>
    <trip id="motorcycle79" type="motorcycle_motorcycle" depart="305.85" departLane="best" departSpeed="max" from="408747258" to="408747258-AddedOffRampEdge"/>
    <trip id="motorcycle81" type="motorcycle_motorcycle" depart="313.59" departLane="best" departSpeed="max" from="408747258" to="572479039#2-AddedOnRampEdge"/>
    <trip id="motorcycle83" type="motorcycle_motorcycle" depart="321.33" departLane="best" departSpeed="max" from="408747258" to="571505150"/>
    <trip id="motorcycle86" type="motorcycle_motorcycle" depart="332.95" departLane="best" departSpeed="max" from="570129387" to="572479039#2"/>
    <trip id="motorcycle88" type="motorcycle_motorcycle" depart="340.69" departLane="best" departSpeed="max" from="356854809" to="570129388"/>
    <trip id="motorcycle89" type="motorcycle_motorcycle" depart="344.56" departLane="best" departSpeed="max" from="570129387" to="570129388"/>
    <trip id="motorcycle92" type="motorcycle_motorcycle" depart="356.17" departLane="best" departSpeed="max" from="570129387" to="570129379"/>
    <trip id="motorcycle94" type="motorcycle_motorcycle" depart="363.92" departLane="best" departSpeed="max" from="408747258" to="570129388"/>
    <trip id="motorcycle95" type="motorcycle_motorcycle" depart="367.79" departLane="best" departSpeed="max" from="570129387" to="570129379"/>
    <trip id="motorcycle96" type="motorcycle_motorcycle" depart="371.66" departLane="best" departSpeed="max" from="408747258" to="572479039#2-AddedOnRampEdge"/>
    <trip id="motorcycle97" type="motorcycle_motorcycle" depart="375.53" departLane="best" departSpeed="max" from="570129387" to="572479039#2"/>
    <trip id="motorcycle103" type="motorcycle_motorcycle" depart="398.76" departLane="best" departSpeed="max" from="570129387" to="356393276#0"/>
    <trip id="motorcycle104" type="motorcycle_motorcycle" depart="402.63" departLane="best" departSpeed="max" from="570129387" to="572479049#0"/>
    <trip id="motorcycle105" type="motorcycle_motorcycle" depart="406.50" departLane="best" departSpeed="max" from="408747258" to="572479039#2"/>
    <trip id="motorcycle106" type="motorcycle_motorcycle" depart="410.37" departLane="best" departSpeed="max" from="570129387" to="570129388"/>
    <trip id="motorcycle107" type="motorcycle_motorcycle" depart="414.25" departLane="best" from="572479049#0" to="572479049#0"/>
    <trip id="motorcycle109" type="motorcycle_motorcycle" depart="421.99" departLane="best" from="356854809-AddedOffRampEdge" to="570129379"/>
    <trip id="motorcycle112" type="motorcycle_motorcycle" depart="433.60" departLane="best" departSpeed="max" from="356854809" to="570129394#0"/>
    <trip id="motorcycle114" type="motorcycle_motorcycle" depart="441.35" departLane="best" from="356854809-AddedOffRampEdge" to="572479049#0"/>
    <trip id="motorcycle115" type="motorcycle_motorcycle" depart="445.22" departLane="best" departSpeed="max" from="356854809" to="356854809-AddedOffRampEdge"/>
    <trip id="motorcycle117" type="motorcycle_motorcycle" depart="452.96" departLane="best" departSpeed="max" from="408747258" to="356393276#0"/>
    <trip id="motorcycle122" type="motorcycle_motorcycle" depart="472.32" departLane="best" departSpeed="max" from="408747258" to="572479039#0"/>
    <trip id="motorcycle123" type="motorcycle_motorcycle" depart="476.19" departLane="best" departSpeed="max" from="408747258" to="570129388"/>
    <trip id="motorcycle124" type="motorcycle_motorcycle" depart="480.06" departLane="best" departSpeed="max" from="570129391" to="570129379"/>
    <trip id="motorcycle125" type="motorcycle_motorcycle" depart="483.93" departLane="best" from="408747258-AddedOffRampEdge" to="572479039#2"/>
    <trip id="motorcycle126" type="motorcycle_motorcycle" depart="487.80" departLane="best" departSpeed="max" from="356854809" to="570129388"/>
    <trip id="motorcycle127" type="motorcycle_motorcycle" depart="491.68" departLane="best" from="572479049#0" to="572479049#0"/>
    <trip id="motorcycle129" type="motorcycle_motorcycle" depart="499.42" departLane="best" departSpeed="max" from="408747258" to="572479039#2-AddedOnRampEdge"/>
    <trip id="motorcycle130" type="motorcycle_motorcycle" depart="503.29" departLane="best" from="572479039#2-AddedOnRampEdge" to="572479039#2-AddedOnRampEdge"/>
    <trip id="motorcycle132" type="motorcycle_motorcycle" depart="511.03" departLane="best" from="572479039#0" to="572479039#0"/>
    <trip id="motorcycle133" type="motorcycle_motorcycle" depart="514.90" departLane="best" departSpeed="max" from="570129391" to="572479049#0"/>
    <trip id="motorcycle134" type="motorcycle_motorcycle" depart="518.78" departLane="best" departSpeed="max" from="570129391" to="356393276#0"/>
    <trip id="motorcycle136" type="motorcycle_motorcycle" depart="526.52" departLane="best" departSpeed="max" from="570129391" to="572479049#0"/>
    <trip id="motorcycle137" type="motorcycle_motorcycle" depart="530.39" departLane="best" from="356854809-AddedOffRampEdge" to="356393276#0"/>
    <trip id="motorcycle138" type="motorcycle_motorcycle" depart="534.26" departLane="best" departSpeed="max" from="356854809" to="570129388-AddedOnRampEdge"/>
    <trip id="motorcycle141" type="motorcycle_motorcycle" depart="545.88" departLane="best" departSpeed="max" from="570129391" to="570129379"/>
    <trip id="motorcycle142" type="motorcycle_motorcycle" depart="549.75" departLane="best" departSpeed="max" from="570129387" to="572479039#2-AddedOnRampEdge"/>
    <trip id="motorcycle144" type="motorcycle_motorcycle" depart="557.49" departLane="best" departSpeed="max" from="570129387" to="570129379"/>
    <trip id="motorcycle145" type="motorcycle_motorcycle" depart="561.36" departLane="best" departSpeed="max" from="356854809" to="572479039#2"/>
    <trip id="motorcycle146" type="motorcycle_motorcycle" depart="565.23" departLane="best" departSpeed="max" from="570129391" to="570129379"/>
    <trip id="motorcycle147" type="motorcycle_motorcycle" depart="569.10" departLane="best" from="570129394#0" to="570129388-AddedOnRampEdge"/>
    <trip id="motorcycle148" type="motorcycle_motorcycle" depart="572.98" departLane="best" departSpeed="max" from="570129387" to="356393276#0"/>
    <trip id="motorcycle149" type="motorcycle_motorcycle" depart="576.85" departLane="best" departSpeed="max" from="356854809" to="572479039#2-AddedOnRampEdge"/>
    <trip id="motorcycle152" type="motorcycle_motorcycle" depart="588.46" departLane="best" from="356854809-AddedOffRampEdge" to="356854809-AddedOffRampEdge"/>
    <trip id="motorcycle153" type="motorcycle_motorcycle" depart="592.33" departLane="best" departSpeed="max" from="408747258" to="572479039#2-AddedOnRampEdge"/>
    <trip id="motorcycle154" type="motorcycle_motorcycle" depart="596.20" departLane="best" from="571505150" to="572479039#2"/>
    <trip id="motorcycle156" type="motorcycle_motorcycle" depart="603.95" departLane="best" departSpeed="max" from="408747258" to="356393276#0"/>
    <trip id="motorcycle157" type="motorcycle_motorcycle" depart="607.82" departLane="best" from="571505150" to="572479039#2-AddedOnRampEdge"/>
    <trip id="motorcycle159" type="motorcycle_motorcycle" depart="615.56" departLane="best" from="356854809-AddedOffRampEdge" to="572479039#2-AddedOnRampEdge"/>
    <trip id="motorcycle161" type="motorcycle_motorcycle" depart="623.30" departLane="best" from="571505150" to="572479039#2-AddedOnRampEdge"/>
    <trip id="motorcycle163" type="motorcycle_motorcycle" depart="631.05" departLane="best" from="408747258-AddedOffRampEdge" to="572479039#2-AddedOnRampEdge"/>
    <trip id="motorcycle164" type="motorcycle_motorcycle" depart="634.92" departLane="best" from="571505150" to="572479039#2"/>
    <trip id="motorcycle165" type="motorcycle_motorcycle" depart="638.79" departLane="best" from="571505150" to="570129379"/>
    <trip id="motorcycle166" type="motorcycle_motorcycle" depart="642.66" departLane="best" from="571505150" to="356393276#0"/>
    <trip id="motorcycle167" type="motorcycle_motorcycle" depart="646.53" departLane="best" from="572479039#0" to="572479039#2"/>
    <trip id="motorcycle168" type="motorcycle_motorcycle" depart="650.41" departLane="best" departSpeed="max" from="408747258" to="572479039#2"/>
    <trip id="motorcycle169" type="motorcycle_motorcycle" depart="654.28" departLane="best" departSpeed="max" from="570129387" to="570129379"/>
    <trip id="motorcycle172" type="motorcycle_motorcycle" depart="665.89" departLane="best" from="408747258-AddedOffRampEdge" to="572479039#2"/>
    <trip id="motorcycle174" type="motorcycle_motorcycle" depart="673.63" departLane="best" departSpeed="max" from="570129391" to="570129388"/>
    <trip id="motorcycle175" type="motorcycle_motorcycle" depart="677.51" departLane="best" from="572479049#0" to="570129388-AddedOnRampEdge"/>
    <trip id="motorcycle179" type="motorcycle_motorcycle" depart="692.99" departLane="best" departSpeed="max" from="356854809" to="570129388"/>
    <trip id="motorcycle180" type="motorcycle_motorcycle" depart="696.86" departLane="best" from="570129394#0" to="570129379"/>
    <trip id="motorcycle181" type="motorcycle_motorcycle" depart="700.73" departLane="best" departSpeed="max" from="570129391" to="570129388-AddedOnRampEdge"/>
    <trip id="motorcycle183" type="motorcycle_motorcycle" depart="708.48" departLane="best" departSpeed="max" from="408747258" to="572479039#0"/>
    <trip id="motorcycle184" type="motorcycle_motorcycle" depart="712.35" departLane="best" departSpeed="max" from="356854809" to="572479039#2-AddedOnRampEdge"/>
    <trip id="motorcycle187" type="motorcycle_motorcycle" depart="723.96" departLane="best" from="408747258-AddedOffRampEdge" to="356393276#0"/>
    <trip id="motorcycle188" type="motorcycle_motorcycle" depart="727.83" departLane="best" departSpeed="max" from="570129391" to="570129379"/>
    <trip id="motorcycle189" type="motorcycle_motorcycle" depart="731.71" departLane="best" from="408747258-AddedOffRampEdge" to="572479039#2"/>
    <trip id="motorcycle190" type="motorcycle_motorcycle" depart="735.58" departLane="best" from="570129394#0" to="570129379"/>
    <trip id="motorcycle191" type="motorcycle_motorcycle" depart="739.45" departLane="best" departSpeed="max" from="408747258" to="570129388"/>
    <trip id="motorcycle192" type="motorcycle_motorcycle" depart="743.32" departLane="best" departSpeed="max" from="570129387" to="570129379"/>
    <trip id="motorcycle193" type="motorcycle_motorcycle" depart="747.19" departLane="best" from="356854809-AddedOffRampEdge" to="570129388"/>
    <trip id="motorcycle196" type="motorcycle_motorcycle" depart="758.81" departLane="best" departSpeed="max" from="408747258" to="570129388-AddedOnRampEdge"/>
    <trip id="motorcycle197" type="motorcycle_motorcycle" depart="762.68" departLane="best" departSpeed="max" from="356854809" to="570129379"/>
    <trip id="motorcycle199" type="motorcycle_motorcycle" depart="770.42" departLane="best" departSpeed="max" from="570129391" to="570129388"/>
    <trip id="motorcycle201" type="motorcycle_motorcycle" depart="778.16" departLane="best" departSpeed="max" from="570129387" to="572479039#2-AddedOnRampEdge"/>
    <trip id="motorcycle203" type="motorcycle_motorcycle" depart="785.91" departLane="best" departSpeed="max" from="356854809" to="570129388-AddedOnRampEdge"/>
    <trip id="motorcycle204" type="motorcycle_motorcycle" depart="789.78" departLane="best" departSpeed="max" from="570129391" to="570129379"/>
    <trip id="motorcycle205" type="motorcycle_motorcycle" depart="793.65" departLane="best" from="572479039#0" to="572479039#2"/>
    <trip id="motorcycle207" type="motorcycle_motorcycle" depart="801.39" departLane="best" departSpeed="max" from="408747258" to="356393276#0"/>
    <trip id="motorcycle208" type="motorcycle_motorcycle" depart="805.26" departLane="best" departSpeed="max" from="408747258" to="570129388"/>
    <trip id="motorcycle211" type="motorcycle_motorcycle" depart="816.88" departLane="best" departSpeed="max" from="408747258" to="572479039#0"/>
    <trip id="motorcycle213" type="motorcycle_motorcycle" depart="824.62" departLane="best" departSpeed="max" from="570129391" to="356393276#0"/>
    <trip id="motorcycle214" type="motorcycle_motorcycle" depart="828.49" departLane="best" from="571505150" to="572479039#2"/>
    <trip id="motorcycle215" type="motorcycle_motorcycle" depart="832.36" departLane="best" departSpeed="max" from="356854809" to="570129388"/>
    <trip id="motorcycle216" type="motorcycle_motorcycle" depart="836.24" departLane="best" from="356854809-AddedOffRampEdge" to="572479049#0"/>
    <trip id="motorcycle218" type="motorcycle_motorcycle" depart="843.98" departLane="best" departSpeed="max" from="408747258" to="572479039#2"/>
    <trip id="motorcycle219" type="motorcycle_motorcycle" depart="847.85" departLane="best" departSpeed="max" from="570129387" to="572479039#2"/>
    <trip id="motorcycle220" type="motorcycle_motorcycle" depart="851.72" departLane="best" departSpeed="max" from="570129391" to="572479049#0"/>
    <trip id="motorcycle221" type="motorcycle_motorcycle" depart="855.59" departLane="best" departSpeed="max" from="570129391" to="572479049#0"/>
    <trip id="motorcycle223" type="motorcycle_motorcycle" depart="863.34" departLane="best" from="570129394#0" to="570129388-AddedOnRampEdge"/>
    <trip id="motorcycle226" type="motorcycle_motorcycle" depart="874.95" departLane="best" departSpeed="max" from="570129387" to="570129379"/>
    <trip id="motorcycle227" type="motorcycle_motorcycle" depart="878.82" departLane="best" departSpeed="max" from="408747258" to="571505150"/>
    <trip id="motorcycle229" type="motorcycle_motorcycle" depart="886.56" departLane="best" departSpeed="max" from="570129391" to="570129379"/>
    <trip id="motorcycle230" type="motorcycle_motorcycle" depart="890.44" departLane="best" departSpeed="max" from="356854809" to="570129379"/>
    <trip id="motorcycle231" type="motorcycle_motorcycle" depart="894.31" departLane="best" departSpeed="max" from="408747258" to="570129379"/>
    <trip id="motorcycle233" type="motorcycle_motorcycle" depart="902.05" departLane="best" departSpeed="max" from="408747258" to="572479039#0"/>
    <trip id="motorcycle234" type="motorcycle_motorcycle" depart="905.92" departLane="best" from="570129394#0" to="356393276#0"/>
    <trip id="motorcycle235" type="motorcycle_motorcycle" depart="909.79" departLane="best" departSpeed="max" from="570129387" to="570129388-AddedOnRampEdge"/>
    <trip id="motorcycle237" type="motorcycle_motorcycle" depart="917.54" departLane="best" departSpeed="max" from="570129387" to="572479039#2-AddedOnRampEdge"/>
    <trip id="motorcycle238" type="motorcycle_motorcycle" depart="921.41" departLane="best" departSpeed="max" from="570129391" to="572479039#0"/>
    <trip id="motorcycle239" type="motorcycle_motorcycle" depart="925.28" departLane="best" from="572479039#0" to="572479039#2"/>
    <trip id="motorcycle240" type="motorcycle_motorcycle" depart="929.15" departLane="best" departSpeed="max" from="570129387" to="356393276#0"/>
    <trip id="motorcycle241" type="motorcycle_motorcycle" depart="933.02" departLane="best" from="408747258-AddedOffRampEdge" to="572479039#2"/>
    <trip id="motorcycle243" type="motorcycle_motorcycle" depart="940.76" departLane="best" departSpeed="max" from="570129387" to="572479039#0"/>
    <trip id="motorcycle245" type="motorcycle_motorcycle" depart="948.51" departLane="best" departSpeed="max" from="408747258" to="408747258-AddedOffRampEdge"/>
    <trip id="motorcycle246" type="motorcycle_motorcycle" depart="952.38" departLane="best" departSpeed="max" from="570129387" to="356393276#0"/>
    <trip id="motorcycle247" type="motorcycle_motorcycle" depart="956.25" departLane="best" from="408747258-AddedOffRampEdge" to="571505150"/>
    <trip id="motorcycle250" type="motorcycle_motorcycle" depart="967.86" departLane="best" departSpeed="max" from="570129391" to="356393276#0"/>
    <trip id="motorcycle253" type="motorcycle_motorcycle" depart="979.48" departLane="best" from="356854809-AddedOffRampEdge" to="570129388"/>
    <trip id="motorcycle254" type="motorcycle_motorcycle" depart="983.35" departLane="best" departSpeed="max" from="356854809" to="570129388"/>
    <trip id="motorcycle255" type="motorcycle_motorcycle" depart="987.22" departLane="best" departSpeed="max" from="408747258" to="570129379"/>
    <trip id="motorcycle257" type="motorcycle_motorcycle" depart="994.96" departLane="best" from="571505150" to="572479039#2"/>
    <trip id="motorcycle258" type="motorcycle_motorcycle" depart="998.84" departLane="best" departSpeed="max" from="408747258" to="356393276#0"/>
    <trip id="motorcycle259" type="motorcycle_motorcycle" depart="1002.71" departLane="best" departSpeed="max" from="356854809" to="570129388-AddedOnRampEdge"/>
    <trip id="motorcycle261" type="motorcycle_motorcycle" depart="1010.45" departLane="best" departSpeed="max" from="570129391" to="572479039#2"/>
    <trip id="motorcycle262" type="motorcycle_motorcycle" depart="1014.32" departLane="best" departSpeed="max" from="570129391" to="572479039#2"/>
    <trip id="motorcycle264" type="motorcycle_motorcycle" depart="1022.07" departLane="best" departSpeed="max" from="356854809" to="356854809-AddedOffRampEdge"/>
    <trip id="motorcycle268" type="motorcycle_motorcycle" depart="1037.55" departLane="best" from="356854809-AddedOffRampEdge" to="570129394#0"/>
    <trip id="motorcycle269" type="motorcycle_motorcycle" depart="1041.42" departLane="best" from="570129394#0" to="356393276#0"/>
    <trip id="motorcycle271" type="motorcycle_motorcycle" depart="1049.17" departLane="best" departSpeed="max" from="356854809" to="356393276#0"/>
    <trip id="motorcycle272" type="motorcycle_motorcycle" depart="1053.04" departLane="best" departSpeed="max" from="408747258" to="571505150"/>
    <trip id="motorcycle273" type="motorcycle_motorcycle" depart="1056.91" departLane="best" from="572479049#0" to="570129388"/>
    <trip id="motorcycle274" type="motorcycle_motorcycle" depart="1060.78" departLane="best" from="570129394#0" to="356393276#0"/>
    <trip id="motorcycle276" type="motorcycle_motorcycle" depart="1068.52" departLane="best" departSpeed="max" from="356854809" to="572479039#2"/>
    <trip id="motorcycle278" type="motorcycle_motorcycle" depart="1076.27" departLane="best" departSpeed="max" from="356854809" to="572479049#0"/>
    <trip id="motorcycle279" type="motorcycle_motorcycle" depart="1080.14" departLane="best" from="571505150" to="570129379"/>
    <trip id="motorcycle280" type="motorcycle_motorcycle" depart="1084.01" departLane="best" departSpeed="max" from="570129387" to="570129379"/>
    <trip id="motorcycle282" type="motorcycle_motorcycle" depart="1091.75" departLane="best" from="572479039#0" to="572479039#2"/>
    <trip id="motorcycle283" type="motorcycle_motorcycle" depart="1095.62" departLane="best" departSpeed="max" from="356854809" to="572479049#0"/>
    <trip id="motorcycle284" type="motorcycle_motorcycle" depart="1099.49" departLane="best" departSpeed="max" from="570129391" to="572479039#2"/>
    <trip id="motorcycle285" type="motorcycle_motorcycle" depart="1103.37" departLane="best" from="570129394#0" to="570129388"/>
    <trip id="motorcycle286" type="motorcycle_motorcycle" depart="1107.24" departLane="best" from="570129394#0" to="572479049#0"/>
    <trip id="motorcycle287" type="motorcycle_motorcycle" depart="1111.11" departLane="best" departSpeed="max" from="408747258" to="572479039#2"/>
    <trip id="motorcycle288" type="motorcycle_motorcycle" depart="1114.98" departLane="best" from="570129388-AddedOnRampEdge" to="570129388"/>
    <trip id="motorcycle289" type="motorcycle_motorcycle" depart="1118.85" departLane="best" departSpeed="max" from="570129387" to="572479039#0"/>
    <trip id="motorcycle290" type="motorcycle_motorcycle" depart="1122.72" departLane="best" departSpeed="max" from="408747258" to="572479039#2"/>
    <trip id="motorcycle294" type="motorcycle_motorcycle" depart="1138.21" departLane="best" departSpeed="max" from="570129387" to="356393276#0"/>
    <trip id="motorcycle296" type="motorcycle_motorcycle" depart="1145.95" departLane="best" departSpeed="max" from="408747258" to="572479039#2"/>
    <trip id="motorcycle297" type="motorcycle_motorcycle" depart="1149.82" departLane="best" from="408747258-AddedOffRampEdge" to="572479039#2-AddedOnRampEdge"/>
    <trip id="motorcycle298" type="motorcycle_motorcycle" depart="1153.69" departLane="best" from="570129394#0" to="570129379"/>
    <trip id="motorcycle299" type="motorcycle_motorcycle" depart="1157.57" departLane="best" departSpeed="max" from="356854809" to="572479049#0"/>
    <trip id="motorcycle301" type="motorcycle_motorcycle" depart="1165.31" departLane="best" departSpeed="max" from="570129387" to="572479039#2"/>
    <trip id="motorcycle303" type="motorcycle_motorcycle" depart="1173.05" departLane="best" departSpeed="max" from="570129387" to="572479039#2"/>
    <trip id="motorcycle305" type="motorcycle_motorcycle" depart="1180.79" departLane="best" from="570129394#0" to="570129379"/>
    <trip id="motorcycle306" type="motorcycle_motorcycle" depart="1184.67" departLane="best" departSpeed="max" from="570129391" to="570129388"/>
    <trip id="motorcycle307" type="motorcycle_motorcycle" depart="1188.54" departLane="best" from="570129388-AddedOnRampEdge" to="570129388"/>
    <trip id="motorcycle308" type="motorcycle_motorcycle" depart="1192.41" departLane="best" from="570129394#0" to="570129379"/>