<?xml version="1.0" encoding="UTF-8"?>

<!-- generated on 2024-03-29 19:30:58 by Eclipse SUMO netedit Version 1.19.0
-->

<additional xmlns:xsi="http://www.w3.org/2001/XMLSchema-instance" xsi:noNamespaceSchemaLocation="http://sumo.dlr.de/xsd/additional_file.xsd">
    <!-- Shapes -->
    <poly id="211437440" type="leisure.pitch" color="207,245,201" fill="1" layer="-2.00" shape="581.868380,596.200384 500.760999,600.973224 503.944736,634.003956 509.622030,643.203942 519.540597,652.582353 528.724455,657.645134 587.222847,655.024531 581.868380,596.200384"/>
    <poly id="211437440#1" type="sport.soccer" color="79,230,125" fill="1" layer="-2.00" shape="581.868380,596.200384 500.760999,600.973224 503.944736,634.003956 509.622030,643.203942 519.540597,652.582353 528.724455,657.645134 587.222847,655.024531 581.868380,596.200384"/>
    <poly id="571160049" type="building.commercial" color="255,230,230" fill="1" layer="-1.00" shape="377.574850,548.973818 414.788956,546.330915 415.234234,552.531143 422.158306,552.029326 424.340168,582.829744 418.006089,583.286955 418.495895,590.145123 439.590938,588.650823 441.661481,617.945800 448.852720,617.432831 450.333269,638.330737 426.644482,640.014613 427.145419,647.106966 384.743825,650.117871 381.459900,603.816855 380.591608,591.483302 377.574850,548.973818"/>
    <poly id="571160049#1" type="shop.car" color="237,199,255" fill="1" layer="-1.00" shape="377.574850,548.973818 414.788956,546.330915 415.234234,552.531143 422.158306,552.029326 424.340168,582.829744 418.006089,583.286955 418.495895,590.145123 439.590938,588.650823 441.661481,617.945800 448.852720,617.432831 450.333269,638.330737 426.644482,640.014613 427.145419,647.106966 384.743825,650.117871 381.459900,603.816855 380.591608,591.483302 377.574850,548.973818"/>
    <poi id="4408269760" type="man_made.surveillance" color="255,230,230" layer="4.00" x="480.37" y="654.53"/>
</additional>
