<?xml version="1.0" encoding="UTF-8"?>

<!-- generated on 2024-03-29 19:35:27 by Eclipse SUMO netedit Version 1.19.0
<configuration xmlns:xsi="http://www.w3.org/2001/XMLSchema-instance" xsi:noNamespaceSchemaLocation="http://sumo.dlr.de/xsd/neteditConfiguration.xsd">

    <input>
        <sumocfg-file value="/home/etensor/Tesis/sumo/sumo/tools/2024-03-29-19-29-14/osm.sumocfg"/>
        <additional-files value="/home/etensor/Tesis/sumo/sumo/tools/2024-03-29-19-29-14/osm.poly.xml.gz"/>
        <route-files value="/home/etensor/Tesis/sumo/sumo/tools/2024-03-29-19-29-14/osm.bus.trips.xml,/home/etensor/Tesis/sumo/sumo/tools/2024-03-29-19-29-14/osm.motorcycle.trips.xml,/home/etensor/Tesis/sumo/sumo/tools/2024-03-29-19-29-14/osm.passenger.trips.xml,/home/etensor/Tesis/sumo/sumo/tools/2024-03-29-19-29-14/osm.truck.trips.xml"/>
        <sumo-net-file value="/home/etensor/Tesis/sumo/sumo/tools/2024-03-29-19-29-14/osm.net.xml.gz"/>
    </input>

    <output>
        <output-file value="/home/etensor/Tesis/sumo/sumo/tools/2024-03-29-19-29-14/osm.net.xml.gz"/>
        <output.street-names value="true"/>
    </output>

    <processing>
        <geometry.min-radius.fix.railways value="false"/>
        <geometry.max-grade.fix value="false"/>
        <offset.disable-normalization value="true"/>
        <lefthand value="0"/>
    </processing>

    <junctions>
        <no-turnarounds value="true"/>
        <junctions.corner-detail value="5"/>
        <junctions.limit-turn-speed value="5.50"/>
        <rectangular-lane-cut value="0"/>
    </junctions>

    <pedestrian>
        <walkingareas value="0"/>
    </pedestrian>

    <netedit>
        <ignore.routeelements value="false"/>
    </netedit>

</configuration>
-->

<net version="1.16" junctionCornerDetail="5" limitTurnSpeed="5.50" xmlns:xsi="http://www.w3.org/2001/XMLSchema-instance" xsi:noNamespaceSchemaLocation="http://sumo.dlr.de/xsd/net_file.xsd">

    <location netOffset="8520686.43,-377303.33" convBoundary="0.00,0.00,1086.47,1187.98" origBoundary="-76.542629,3.387398,-76.532869,3.398051" projParameter="+proj=merc +a=6378137 +b=6378137 +lat_ts=0.0 +lon_0=0.0 +x_0=0.0 +y_0=0 +k=1.0 +units=m +nadgrids=@null +wktext +no_defs"/>

    <type id="highway.secondary" priority="11" numLanes="1" speed="27.78" disallow="tram rail_urban rail rail_electric rail_fast ship" oneway="0"/>
    <type id="highway.secondary_link" priority="6" numLanes="1" speed="22.22" disallow="tram rail_urban rail rail_electric rail_fast ship" oneway="0"/>
    <type id="highway.tertiary" priority="10" numLanes="1" speed="22.22" disallow="tram rail_urban rail rail_electric rail_fast ship" oneway="0"/>

    <edge id=":356854809-AddedOffRampNode_0" function="internal">
        <lane id=":356854809-AddedOffRampNode_0_0" index="0" disallow="tram rail_urban rail rail_electric rail_fast ship" speed="8.33" length="8.20" shape="630.27,678.07 627.85,678.74 626.39,679.95 624.93,681.16 622.51,681.83"/>
        <lane id=":356854809-AddedOffRampNode_0_1" index="1" disallow="tram rail_urban rail rail_electric rail_fast ship" speed="8.33" length="8.20" shape="630.27,678.07 622.29,678.64"/>
        <lane id=":356854809-AddedOffRampNode_0_2" index="2" disallow="tram rail_urban rail rail_electric rail_fast ship" speed="8.33" length="8.20" shape="630.04,674.88 622.06,675.44"/>
        <lane id=":356854809-AddedOffRampNode_0_3" index="3" disallow="tram rail_urban rail rail_electric rail_fast ship" speed="8.33" length="8.20" shape="629.82,671.69 621.84,672.25"/>
    </edge>
    <edge id=":3622576381_0" function="internal">
        <lane id=":3622576381_0_0" index="0" disallow="tram rail_urban rail rail_electric rail_fast ship" speed="15.27" length="4.95" shape="529.60,688.90 528.13,689.01 527.13,689.04 526.12,689.00 524.66,688.87"/>
    </edge>
    <edge id=":3622576381_1" function="internal">
        <lane id=":3622576381_1_0" index="0" disallow="tram rail_urban rail rail_electric rail_fast ship" speed="8.33" length="3.87" shape="529.36,685.71 524.94,686.05"/>
        <lane id=":3622576381_1_1" index="1" disallow="tram rail_urban rail rail_electric rail_fast ship" speed="8.33" length="3.87" shape="529.13,682.52 525.26,682.81"/>
        <lane id=":3622576381_1_2" index="2" disallow="tram rail_urban rail rail_electric rail_fast ship" speed="8.33" length="3.87" shape="528.89,679.33 525.59,679.58"/>
    </edge>
    <edge id=":3622576397_0" function="internal">
        <lane id=":3622576397_0_0" index="0" disallow="tram rail_urban rail rail_electric rail_fast ship" speed="8.33" length="2.54" shape="530.00,662.62 530.66,662.64 531.11,662.64 531.57,662.61 532.23,662.57"/>
        <lane id=":3622576397_0_1" index="1" disallow="tram rail_urban rail rail_electric rail_fast ship" speed="8.33" length="2.54" shape="529.93,665.82 530.68,665.84 531.20,665.84 531.71,665.81 532.46,665.76"/>
        <lane id=":3622576397_0_2" index="2" disallow="tram rail_urban rail rail_electric rail_fast ship" speed="8.33" length="2.54" shape="529.86,669.02 530.70,669.04 531.28,669.04 531.86,669.01 532.70,668.95"/>
    </edge>
    <edge id=":3622576397_3" function="internal">
        <lane id=":3622576397_3_0" index="0" disallow="tram rail_urban rail rail_electric rail_fast ship" speed="15.27" length="2.49" shape="529.55,659.88 531.99,659.38"/>
    </edge>
    <edge id=":3622576454_0" function="internal">
        <lane id=":3622576454_0_0" index="0" disallow="tram rail_urban rail rail_electric rail_fast ship" speed="18.05" length="3.00" shape="504.49,715.30 504.64,718.29"/>
    </edge>
    <edge id=":3622576454_1" function="internal">
        <lane id=":3622576454_1_0" index="0" disallow="tram rail_urban rail rail_electric rail_fast ship" speed="13.89" length="3.00" shape="501.24,715.52 501.45,718.52"/>
        <lane id=":3622576454_1_1" index="1" disallow="tram rail_urban rail rail_electric rail_fast ship" speed="13.89" length="3.00" shape="498.04,715.75 498.26,718.74"/>
        <lane id=":3622576454_1_2" index="2" disallow="tram rail_urban rail rail_electric rail_fast ship" speed="13.89" length="3.00" shape="494.85,715.97 495.06,718.96"/>
    </edge>
    <edge id=":3622576482_0" function="internal">
        <lane id=":3622576482_0_0" index="0" disallow="tram rail_urban rail rail_electric rail_fast ship" speed="5.10" length="1.76" shape="501.40,628.30 501.42,628.81 501.38,629.17 501.23,629.51 500.94,629.93"/>
    </edge>
    <edge id=":3622576482_1" function="internal">
        <lane id=":3622576482_1_0" index="0" disallow="tram rail_urban rail rail_electric rail_fast ship" speed="13.89" length="2.88" shape="498.21,628.55 496.82,631.02"/>
        <lane id=":3622576482_1_1" index="1" disallow="tram rail_urban rail rail_electric rail_fast ship" speed="13.89" length="2.88" shape="495.02,628.81 493.63,631.32"/>
        <lane id=":3622576482_1_2" index="2" disallow="tram rail_urban rail rail_electric rail_fast ship" speed="13.89" length="2.88" shape="491.83,629.07 490.45,631.61"/>
        <lane id=":3622576482_1_3" index="3" disallow="tram rail_urban rail rail_electric rail_fast ship" speed="13.89" length="2.88" shape="488.64,629.33 487.26,631.91"/>
    </edge>
    <edge id=":408747258-AddedOffRampNode_0" function="internal">
        <lane id=":408747258-AddedOffRampNode_0_0" index="0" disallow="tram rail_urban rail rail_electric rail_fast ship" speed="13.89" length="8.74" shape="487.17,526.17 488.32,528.83 490.57,530.06 492.80,531.30 493.88,533.96"/>
        <lane id=":408747258-AddedOffRampNode_0_1" index="1" disallow="tram rail_urban rail rail_electric rail_fast ship" speed="13.89" length="8.74" shape="487.17,526.17 487.80,528.62 488.96,530.12 490.11,531.62 490.68,534.06"/>
        <lane id=":408747258-AddedOffRampNode_0_2" index="2" disallow="tram rail_urban rail rail_electric rail_fast ship" speed="13.89" length="8.74" shape="487.17,526.17 487.48,534.17"/>
        <lane id=":408747258-AddedOffRampNode_0_3" index="3" disallow="tram rail_urban rail rail_electric rail_fast ship" speed="13.89" length="8.74" shape="483.97,526.28 484.28,534.27"/>
        <lane id=":408747258-AddedOffRampNode_0_4" index="4" disallow="tram rail_urban rail rail_electric rail_fast ship" speed="13.89" length="8.74" shape="480.77,526.40 481.09,534.38"/>
    </edge>
    <edge id=":570129388-AddedOnRampNode_0" function="internal">
        <lane id=":570129388-AddedOnRampNode_0_0" index="0" disallow="tram rail_urban rail rail_electric rail_fast ship" speed="8.33" length="8.00" shape="626.65,656.02 634.62,655.37"/>
        <lane id=":570129388-AddedOnRampNode_0_1" index="1" disallow="tram rail_urban rail rail_electric rail_fast ship" speed="8.33" length="8.00" shape="626.90,659.21 634.88,658.56"/>
        <lane id=":570129388-AddedOnRampNode_0_2" index="2" disallow="tram rail_urban rail rail_electric rail_fast ship" speed="8.33" length="8.00" shape="627.16,662.40 635.13,661.75"/>
    </edge>
    <edge id=":572479039#2-AddedOnRampNode_0" function="internal">
        <lane id=":572479039#2-AddedOnRampNode_0_0" index="0" disallow="tram rail_urban rail rail_electric rail_fast ship" speed="13.89" length="8.00" shape="508.02,812.81 508.57,820.79"/>
        <lane id=":572479039#2-AddedOnRampNode_0_1" index="1" disallow="tram rail_urban rail rail_electric rail_fast ship" speed="13.89" length="8.00" shape="504.83,813.03 505.38,821.01"/>
        <lane id=":572479039#2-AddedOnRampNode_0_2" index="2" disallow="tram rail_urban rail rail_electric rail_fast ship" speed="13.89" length="8.00" shape="501.63,813.25 502.19,821.23"/>
    </edge>
    <edge id=":cluster_2164402551_2164402561_2164664296_2164664304_#8more_0" function="internal">
        <lane id=":cluster_2164402551_2164402561_2164664296_2164664304_#8more_0_0" index="0" disallow="tram rail_urban rail rail_electric rail_fast ship" speed="8.33" length="28.33" shape="470.71,695.52 468.85,693.07 463.75,691.62 455.41,691.18 443.83,691.74"/>
    </edge>
    <edge id=":cluster_2164402551_2164402561_2164664296_2164664304_#8more_1" function="internal">
        <lane id=":cluster_2164402551_2164402561_2164664296_2164664304_#8more_1_0" index="0" disallow="tram rail_urban rail rail_electric rail_fast ship" speed="11.11" length="56.66" shape="470.71,695.52 467.59,638.87"/>
        <lane id=":cluster_2164402551_2164402561_2164664296_2164664304_#8more_1_1" index="1" disallow="tram rail_urban rail rail_electric rail_fast ship" speed="11.11" length="56.66" shape="473.91,695.31 470.79,638.73"/>
        <lane id=":cluster_2164402551_2164402561_2164664296_2164664304_#8more_1_2" index="2" disallow="tram rail_urban rail rail_electric rail_fast ship" speed="11.11" length="56.66" shape="477.10,695.09 473.99,638.59"/>
    </edge>
    <edge id=":cluster_2164402551_2164402561_2164664296_2164664304_#8more_4" function="internal">
        <lane id=":cluster_2164402551_2164402561_2164664296_2164664304_#8more_4_0" index="0" disallow="tram rail_urban rail rail_electric rail_fast ship" speed="8.33" length="49.24" shape="477.10,695.09 477.52,680.78 481.95,671.48 490.98,666.53 505.24,665.28"/>
        <lane id=":cluster_2164402551_2164402561_2164664296_2164664304_#8more_4_1" index="1" disallow="tram rail_urban rail rail_electric rail_fast ship" speed="8.33" length="46.57" shape="477.10,695.09 477.75,681.81 482.48,673.55 491.56,669.41 505.30,668.48"/>
    </edge>
    <edge id=":cluster_2164402551_2164402561_2164664296_2164664304_#8more_6" function="internal">
        <lane id=":cluster_2164402551_2164402561_2164664296_2164664304_#8more_6_0" index="0" disallow="tram rail_urban rail rail_electric rail_fast ship" speed="7.06" length="23.74" shape="477.10,695.09 480.75,688.74 484.67,686.44 488.86,688.20 493.32,694.01"/>
    </edge>
    <edge id=":cluster_2164402551_2164402561_2164664296_2164664304_#8more_7" function="internal">
        <lane id=":cluster_2164402551_2164402561_2164664296_2164664304_#8more_7_0" index="0" disallow="tram rail_urban rail rail_electric rail_fast ship" speed="8.33" length="62.16" shape="505.64,687.53 443.83,691.74"/>
        <lane id=":cluster_2164402551_2164402561_2164664296_2164664304_#8more_7_1" index="1" disallow="tram rail_urban rail rail_electric rail_fast ship" speed="8.33" length="62.16" shape="505.58,684.32 443.57,688.55"/>
        <lane id=":cluster_2164402551_2164402561_2164664296_2164664304_#8more_7_2" index="2" disallow="tram rail_urban rail rail_electric rail_fast ship" speed="8.33" length="62.16" shape="505.53,681.12 443.31,685.36"/>
    </edge>
    <edge id=":cluster_2164402551_2164402561_2164664296_2164664304_#8more_10" function="internal">
        <lane id=":cluster_2164402551_2164402561_2164664296_2164664304_#8more_10_0" index="0" disallow="tram rail_urban rail rail_electric rail_fast ship" speed="11.11" length="60.03" shape="505.53,681.12 492.49,679.31 482.88,671.62 476.72,658.04 473.99,638.59"/>
    </edge>
    <edge id=":cluster_2164402551_2164402561_2164664296_2164664304_#8more_11" function="internal">
        <lane id=":cluster_2164402551_2164402561_2164664296_2164664304_#8more_11_0" index="0" disallow="tram rail_urban rail rail_electric rail_fast ship" speed="6.40" length="18.47" shape="505.53,681.12 500.73,678.04 499.09,674.91 500.62,671.72 505.30,668.48"/>
    </edge>
    <edge id=":cluster_2164402551_2164402561_2164664296_2164664304_#8more_12" function="internal">
        <lane id=":cluster_2164402551_2164402561_2164664296_2164664304_#8more_12_0" index="0" disallow="tram rail_urban rail rail_electric rail_fast ship" speed="13.89" length="56.17" shape="497.42,637.53 499.71,693.58"/>
        <lane id=":cluster_2164402551_2164402561_2164664296_2164664304_#8more_12_1" index="1" disallow="tram rail_urban rail rail_electric rail_fast ship" speed="13.89" length="56.17" shape="494.22,637.67 496.51,693.79"/>
        <lane id=":cluster_2164402551_2164402561_2164664296_2164664304_#8more_12_2" index="2" disallow="tram rail_urban rail rail_electric rail_fast ship" speed="13.89" length="56.17" shape="491.02,637.82 493.32,694.01"/>
    </edge>
    <edge id=":cluster_2164402551_2164402561_2164664296_2164664304_#8more_15" function="internal">
        <lane id=":cluster_2164402551_2164402561_2164664296_2164664304_#8more_15_0" index="0" disallow="tram rail_urban rail rail_electric rail_fast ship" speed="11.11" length="74.29" shape="487.82,637.96 486.56,657.23 478.72,671.56 464.30,680.93 443.31,685.36"/>
    </edge>
    <edge id=":cluster_2164402551_2164402561_2164664296_2164664304_#8more_16" function="internal">
        <lane id=":cluster_2164402551_2164402561_2164664296_2164664304_#8more_16_0" index="0" disallow="tram rail_urban rail rail_electric rail_fast ship" speed="6.61" length="20.23" shape="487.82,637.96 484.60,643.31 481.22,645.19 477.68,643.62 473.99,638.59"/>
    </edge>
    <edge id=":cluster_2164402551_2164402561_2164664296_2164664304_#8more_17" function="internal">
        <lane id=":cluster_2164402551_2164402561_2164664296_2164664304_#8more_17_0" index="0" disallow="tram rail_urban rail rail_electric rail_fast ship" speed="11.11" length="41.86" shape="441.73,665.70 453.45,662.90 461.67,657.50 466.38,649.49 467.59,638.87"/>
    </edge>
    <edge id=":cluster_2164402551_2164402561_2164664296_2164664304_#8more_18" function="internal">
        <lane id=":cluster_2164402551_2164402561_2164664296_2164664304_#8more_18_0" index="0" disallow="tram rail_urban rail rail_electric rail_fast ship" speed="8.33" length="63.38" shape="441.73,665.70 455.83,664.39 473.43,663.14 491.04,662.27 505.19,662.07"/>
        <lane id=":cluster_2164402551_2164402561_2164664296_2164664304_#8more_18_1" index="1" disallow="tram rail_urban rail rail_electric rail_fast ship" speed="8.33" length="63.38" shape="441.99,668.89 456.05,667.58 473.58,666.34 491.13,665.47 505.24,665.28"/>
        <lane id=":cluster_2164402551_2164402561_2164664296_2164664304_#8more_18_2" index="2" disallow="tram rail_urban rail rail_electric rail_fast ship" speed="8.33" length="63.38" shape="442.24,672.08 456.28,670.78 473.74,669.54 491.22,668.67 505.30,668.48"/>
    </edge>
    <edge id=":cluster_2164402551_2164402561_2164664296_2164664304_#8more_21" function="internal">
        <lane id=":cluster_2164402551_2164402561_2164664296_2164664304_#8more_21_0" index="0" disallow="tram rail_urban rail rail_electric rail_fast ship" speed="11.11" length="65.30" shape="442.24,672.08 465.27,671.26 481.99,674.61 492.40,682.12 496.51,693.79"/>
        <lane id=":cluster_2164402551_2164402561_2164664296_2164664304_#8more_21_1" index="1" disallow="tram rail_urban rail rail_electric rail_fast ship" speed="11.11" length="62.38" shape="442.24,672.08 463.87,671.41 479.60,674.84 489.41,682.37 493.32,694.01"/>
    </edge>
    <edge id=":cluster_2164402551_2164402561_2164664296_2164664304_#8more_23" function="internal">
        <lane id=":cluster_2164402551_2164402561_2164664296_2164664304_#8more_23_0" index="0" disallow="tram rail_urban rail rail_electric rail_fast ship" speed="6.48" length="19.45" shape="442.24,672.08 447.49,675.00 449.42,678.19 448.03,681.64 443.31,685.36"/>
    </edge>

    <edge id="356393276#0" from="cluster_2164402551_2164402561_2164664296_2164664304_#8more" to="5952748235" name="Carrera 70" priority="10" type="highway.tertiary" spreadType="center" shape="443.57,688.55 360.45,695.24 308.33,698.77 303.60,699.10 225.57,704.39 71.02,716.84 0.00,724.87">
        <lane id="356393276#0_0" index="0" disallow="tram rail_urban rail rail_electric rail_fast ship" speed="8.33" length="445.10" shape="443.83,691.74 360.69,698.43 308.55,701.96 303.82,702.29 225.81,707.58 71.33,720.03 0.36,728.05">
            <param key="origId" value="356393276"/>
        </lane>
        <lane id="356393276#0_1" index="1" disallow="tram rail_urban rail rail_electric rail_fast ship" speed="8.33" length="445.10" shape="443.57,688.55 360.45,695.24 308.33,698.77 303.60,699.10 225.57,704.39 71.02,716.84 -0.00,724.87">
            <param key="origId" value="356393276"/>
        </lane>
        <lane id="356393276#0_2" index="2" disallow="tram rail_urban rail rail_electric rail_fast ship" speed="8.33" length="445.10" shape="443.31,685.36 360.21,692.05 308.11,695.58 303.38,695.91 225.33,701.20 70.71,713.65 -0.36,721.69">
            <param key="origId" value="356393276"/>
        </lane>
        <param key="origFrom" value="3622576353"/>
    </edge>
    <edge id="356854809" from="5481745912" to="356854809-AddedOffRampNode" name="Carrera 70" priority="10" type="highway.tertiary" spreadType="center" shape="1086.47,643.55 984.16,649.19 950.76,652.07 915.73,654.20 814.58,661.59 787.16,663.60 713.93,668.97 626.05,675.16">
        <lane id="356854809_0" index="0" disallow="tram rail_urban rail rail_electric rail_fast ship" speed="8.33" length="457.52" shape="1086.65,646.75 984.39,652.38 950.99,655.26 915.94,657.39 814.81,664.78 787.39,666.79 714.16,672.16 630.27,678.07">
            <param key="origId" value="356854809"/>
        </lane>
        <lane id="356854809_1" index="1" disallow="tram rail_urban rail rail_electric rail_fast ship" speed="8.33" length="457.52" shape="1086.47,643.55 984.16,649.19 950.76,652.07 915.73,654.20 814.58,661.59 787.16,663.60 713.93,668.97 630.04,674.88">
            <param key="origId" value="356854809"/>
        </lane>
        <lane id="356854809_2" index="2" disallow="tram rail_urban rail rail_electric rail_fast ship" speed="8.33" length="457.52" shape="1086.29,640.35 983.93,646.00 950.53,648.88 915.52,651.01 814.35,658.40 786.93,660.41 713.70,665.78 629.82,671.69">
            <param key="origId" value="356854809"/>
        </lane>
    </edge>
    <edge id="356854809-AddedOffRampEdge" from="356854809-AddedOffRampNode" to="3622576381" name="Carrera 70" priority="10" type="highway.tertiary" spreadType="center" shape="626.17,676.76 619.77,677.21 593.80,679.36 526.46,684.32">
        <lane id="356854809-AddedOffRampEdge_0" index="0" disallow="tram rail_urban rail rail_electric rail_fast ship" speed="8.33" length="93.20" shape="622.51,681.83 620.14,682.00 594.17,684.15 529.60,688.90">
            <param key="origId" value="356854809"/>
        </lane>
        <lane id="356854809-AddedOffRampEdge_1" index="1" disallow="tram rail_urban rail rail_electric rail_fast ship" speed="8.33" length="93.20" shape="622.29,678.64 619.89,678.81 593.92,680.96 529.36,685.71">
            <param key="origId" value="356854809"/>
        </lane>
        <lane id="356854809-AddedOffRampEdge_2" index="2" disallow="tram rail_urban rail rail_electric rail_fast ship" speed="8.33" length="93.20" shape="622.06,675.44 619.65,675.61 593.68,677.76 529.13,682.52">
            <param key="origId" value="356854809"/>
        </lane>
        <lane id="356854809-AddedOffRampEdge_3" index="3" disallow="tram rail_urban rail rail_electric rail_fast ship" speed="8.33" length="93.20" shape="621.84,672.25 619.40,672.42 593.43,674.57 528.89,679.33">
            <param key="origId" value="356854809"/>
        </lane>
    </edge>
    <edge id="356857390" from="3622576381" to="3622576454" priority="6" type="highway.secondary_link" spreadType="center" shape="529.27,689.31 521.65,688.59 516.44,689.82 512.08,691.61 508.66,695.58 506.38,699.62 504.76,704.70 504.35,710.81 504.54,716.82">
        <lane id="356857390_0" index="0" disallow="tram rail_urban rail rail_electric rail_fast ship" speed="22.22" length="38.91" shape="524.66,688.87 521.65,688.59 516.44,689.82 512.08,691.61 508.66,695.58 506.38,699.62 504.76,704.70 504.35,710.81 504.49,715.30">
            <param key="origId" value="356857390"/>
        </lane>
    </edge>
    <edge id="356857396" from="3622576482" to="3622576397" priority="6" type="highway.secondary_link" spreadType="center" shape="501.47,629.20 500.85,630.05 500.49,631.04 500.39,632.16 500.52,633.39 500.86,634.72 501.41,636.13 502.14,637.61 503.04,639.15 504.09,640.72 505.28,642.33 506.58,643.95 507.99,645.56 509.48,647.16 511.04,648.73 512.65,650.25 514.29,651.71 515.95,653.10 517.62,654.41 519.26,655.61 520.88,656.69 522.45,657.65 523.95,658.46 525.37,659.11 526.70,659.58 527.90,659.87 528.98,659.96 529.91,659.83 530.67,659.47">
        <lane id="356857396_0" index="0" disallow="tram rail_urban rail rail_electric rail_fast ship" speed="22.22" length="44.48" shape="500.94,629.93 500.85,630.05 500.49,631.04 500.39,632.16 500.52,633.39 500.86,634.72 501.41,636.13 502.14,637.61 503.04,639.15 504.09,640.72 505.28,642.33 506.58,643.95 507.99,645.56 509.48,647.16 511.04,648.73 512.65,650.25 514.29,651.71 515.95,653.10 517.62,654.41 519.26,655.61 520.88,656.69 522.45,657.65 523.95,658.46 525.37,659.11 526.70,659.58 527.90,659.87 528.98,659.96 529.55,659.88">
            <param key="origId" value="356857396"/>
        </lane>
    </edge>
    <edge id="408747258" from="4640174026" to="408747258-AddedOffRampNode" name="Calle 13" priority="11" type="highway.secondary" spreadType="center" shape="457.36,0.00 459.49,94.16 462.29,147.77 466.08,221.10 469.75,288.67 471.04,316.65 472.96,344.64 480.66,469.18 484.07,528.03 484.15,530.28">
        <lane id="408747258_0" index="0" disallow="tram rail_urban rail rail_electric rail_fast ship" speed="13.89" length="527.01" shape="460.56,-0.07 462.69,94.04 465.49,147.60 469.28,220.93 472.95,288.51 474.23,316.47 476.15,344.43 483.85,468.99 487.17,526.17">
            <param key="origId" value="408747258"/>
        </lane>
        <lane id="408747258_1" index="1" disallow="tram rail_urban rail rail_electric rail_fast ship" speed="13.89" length="527.01" shape="457.36,0.00 459.49,94.16 462.29,147.77 466.08,221.10 469.75,288.67 471.04,316.65 472.96,344.64 480.66,469.18 483.97,526.28">
            <param key="origId" value="408747258"/>
        </lane>
        <lane id="408747258_2" index="2" disallow="tram rail_urban rail rail_electric rail_fast ship" speed="13.89" length="527.01" shape="454.16,0.07 456.29,94.28 459.09,147.94 462.88,221.27 466.55,288.83 467.85,316.83 469.77,344.85 477.47,469.37 480.77,526.40">
            <param key="origId" value="408747258"/>
        </lane>
    </edge>
    <edge id="408747258-AddedOffRampEdge" from="408747258-AddedOffRampNode" to="3622576482" name="Calle 13" priority="11" type="highway.secondary" spreadType="center" shape="487.35,530.17 487.55,536.25 495.09,629.71">
        <lane id="408747258-AddedOffRampEdge_0" index="0" disallow="tram rail_urban rail rail_electric rail_fast ship" speed="13.89" length="94.94" shape="493.88,533.96 493.94,535.89 501.40,628.30">
            <param key="origId" value="408747258"/>
        </lane>
        <lane id="408747258-AddedOffRampEdge_1" index="1" disallow="tram rail_urban rail rail_electric rail_fast ship" speed="13.89" length="94.94" shape="490.68,534.06 490.75,536.07 498.21,628.55">
            <param key="origId" value="408747258"/>
        </lane>
        <lane id="408747258-AddedOffRampEdge_2" index="2" disallow="tram rail_urban rail rail_electric rail_fast ship" speed="13.89" length="94.94" shape="487.48,534.17 487.55,536.25 495.02,628.81">
            <param key="origId" value="408747258"/>
        </lane>
        <lane id="408747258-AddedOffRampEdge_3" index="3" disallow="tram rail_urban rail rail_electric rail_fast ship" speed="13.89" length="94.94" shape="484.28,534.27 484.35,536.43 491.83,629.07">
            <param key="origId" value="408747258"/>
        </lane>
        <lane id="408747258-AddedOffRampEdge_4" index="4" disallow="tram rail_urban rail rail_electric rail_fast ship" speed="13.89" length="94.94" shape="481.09,534.38 481.16,536.61 488.64,629.33">
            <param key="origId" value="408747258"/>
        </lane>
    </edge>
    <edge id="570129379" from="cluster_2164402551_2164402561_2164664296_2164664304_#8more" to="2172154306" name="Calle 13" priority="11" type="highway.secondary" spreadType="center" shape="470.79,638.73 468.11,579.37 466.32,553.69">
        <lane id="570129379_0" index="0" disallow="tram rail_urban rail rail_electric rail_fast ship" speed="13.89" length="85.16" shape="467.59,638.87 464.92,579.55 463.13,553.91">
            <param key="origId" value="570129379"/>
        </lane>
        <lane id="570129379_1" index="1" disallow="tram rail_urban rail rail_electric rail_fast ship" speed="13.89" length="85.16" shape="470.79,638.73 468.11,579.37 466.32,553.69">
            <param key="origId" value="570129379"/>
        </lane>
        <lane id="570129379_2" index="2" disallow="tram rail_urban rail rail_electric rail_fast ship" speed="13.89" length="85.16" shape="473.99,638.59 471.30,579.19 469.51,553.47">
            <param key="origId" value="570129379"/>
        </lane>
        <param key="origFrom" value="3622576419"/>
    </edge>
    <edge id="570129387" from="2680622887" to="cluster_2164402551_2164402561_2164664296_2164664304_#8more" name="Calle 13" priority="11" type="highway.secondary" spreadType="center" shape="513.65,1187.98 512.46,1180.71 507.84,1149.89 506.16,1126.24 501.51,1060.71 493.35,945.09 483.73,820.20 477.94,745.05 476.64,729.33 475.85,719.50">
        <lane id="570129387_0" index="0" disallow="tram rail_urban rail rail_electric rail_fast ship" speed="8.33" length="494.38" shape="510.49,1188.50 509.30,1181.21 504.66,1150.24 502.97,1126.47 498.32,1060.94 490.16,945.33 480.54,820.45 474.75,745.30 473.45,729.59 470.71,695.52">
            <param key="origId" value="570129387"/>
        </lane>
        <lane id="570129387_1" index="1" disallow="tram rail_urban rail rail_electric rail_fast ship" speed="8.33" length="494.38" shape="513.65,1187.98 512.46,1180.71 507.84,1149.89 506.16,1126.24 501.51,1060.71 493.35,945.09 483.73,820.20 477.94,745.05 476.64,729.33 473.91,695.31">
            <param key="origId" value="570129387"/>
        </lane>
        <lane id="570129387_2" index="2" disallow="tram rail_urban rail rail_electric rail_fast ship" speed="8.33" length="494.38" shape="516.81,1187.46 515.62,1180.21 511.02,1149.54 509.35,1126.01 504.70,1060.48 496.54,944.85 486.92,819.95 481.13,744.80 479.83,729.07 477.10,695.09">
            <param key="origId" value="570129387"/>
        </lane>
        <param key="origTo" value="3622576413"/>
    </edge>
    <edge id="570129388" from="570129388-AddedOnRampNode" to="2991313001" name="Carrera 70" priority="10" type="highway.tertiary" spreadType="center" shape="630.89,658.88 714.23,652.13 817.10,644.34">
        <lane id="570129388_0" index="0" disallow="tram rail_urban rail rail_electric rail_fast ship" speed="8.33" length="182.78" shape="634.62,655.37 713.98,648.94 816.86,641.15">
            <param key="origId" value="570129388"/>
        </lane>
        <lane id="570129388_1" index="1" disallow="tram rail_urban rail rail_electric rail_fast ship" speed="8.33" length="182.78" shape="634.88,658.56 714.23,652.13 817.10,644.34">
            <param key="origId" value="570129388"/>
        </lane>
        <lane id="570129388_2" index="2" disallow="tram rail_urban rail rail_electric rail_fast ship" speed="8.33" length="182.78" shape="635.13,661.75 714.48,655.32 817.34,647.53">
            <param key="origId" value="570129388"/>
        </lane>
    </edge>
    <edge id="570129388-AddedOnRampEdge" from="3622576397" to="570129388-AddedOnRampNode" name="Carrera 70" priority="10" type="highway.tertiary" spreadType="center" shape="531.02,664.26 595.00,659.54 617.95,658.32 630.76,657.29">
        <lane id="570129388-AddedOnRampEdge_0" index="0" disallow="tram rail_urban rail rail_electric rail_fast ship" speed="8.33" length="94.66" acceleration="1" shape="531.99,659.38 594.70,654.75 617.63,653.53 626.39,652.83">
            <param key="origId" value="570129388"/>
        </lane>
        <lane id="570129388-AddedOnRampEdge_1" index="1" disallow="tram rail_urban rail rail_electric rail_fast ship" speed="8.33" length="94.66" shape="532.23,662.57 594.90,657.94 617.84,656.72 626.65,656.02">
            <param key="origId" value="570129388"/>
        </lane>
        <lane id="570129388-AddedOnRampEdge_2" index="2" disallow="tram rail_urban rail rail_electric rail_fast ship" speed="8.33" length="94.66" shape="532.46,665.76 595.10,661.14 618.06,659.92 626.90,659.21">