<?xml version="1.0" encoding="UTF-8"?>

<!-- generated on 2024-08-10 19:40:29 by Eclipse SUMO netedit Version 1.19.0
<configuration xmlns:xsi="http://www.w3.org/2001/XMLSchema-instance" xsi:noNamespaceSchemaLocation="http://sumo.dlr.de/xsd/neteditConfiguration.xsd">

    <input>
        <sumocfg-file value="osm2.sumocfg"/>
        <additional-files value="osm.poly.add.xml"/>
        <route-files value="routes.rou.xml"/>
        <sumo-net-file value="osm.net.xml"/>
    </input>

    <output>
        <output-file value="osm.net.xml"/>
        <output.street-names value="true"/>
    </output>

    <processing>
        <geometry.min-radius.fix.railways value="false"/>
        <geometry.max-grade.fix value="false"/>
        <offset.disable-normalization value="true"/>
        <lefthand value="0"/>
    </processing>

    <junctions>
        <no-turnarounds value="true"/>
        <junctions.corner-detail value="5"/>
        <junctions.limit-turn-speed value="5.50"/>
        <rectangular-lane-cut value="0"/>
    </junctions>

    <pedestrian>
        <walkingareas value="0"/>
    </pedestrian>

    <netedit>
        <ignore.routeelements value="false"/>
    </netedit>

</configuration>
-->

<net version="1.16" junctionCornerDetail="5" limitTurnSpeed="5.50" xmlns:xsi="http://www.w3.org/2001/XMLSchema-instance" xsi:noNamespaceSchemaLocation="http://sumo.dlr.de/xsd/net_file.xsd">

    <location netOffset="8520686.43,-377303.33" convBoundary="0.00,0.00,1013.42,1187.98" origBoundary="-76.542629,3.387398,-76.532869,3.398051" projParameter="+proj=merc +a=6378137 +b=6378137 +lat_ts=0.0 +lon_0=0.0 +x_0=0.0 +y_0=0 +k=1.0 +units=m +nadgrids=@null +wktext +no_defs"/>

    <type id="highway.secondary" priority="11" numLanes="1" speed="27.78" disallow="tram rail_urban rail rail_electric rail_fast ship" oneway="0"/>
    <type id="highway.secondary_link" priority="6" numLanes="1" speed="22.22" disallow="tram rail_urban rail rail_electric rail_fast ship" oneway="0"/>
    <type id="highway.tertiary" priority="10" numLanes="1" speed="22.22" disallow="tram rail_urban rail rail_electric rail_fast ship" oneway="0"/>

    <edge id=":356854809-AddedOffRampNode_0" function="internal">
        <lane id=":356854809-AddedOffRampNode_0_0" index="0" disallow="tram rail_urban rail rail_electric rail_fast ship" speed="8.33" length="8.20" shape="630.26,678.08 627.85,678.75 626.40,679.95 624.95,681.16 622.54,681.85"/>
        <lane id=":356854809-AddedOffRampNode_0_1" index="1" disallow="tram rail_urban rail rail_electric rail_fast ship" speed="8.33" length="8.20" shape="630.26,678.08 622.30,678.65"/>
        <lane id=":356854809-AddedOffRampNode_0_2" index="2" disallow="tram rail_urban rail rail_electric rail_fast ship" speed="8.33" length="8.20" shape="630.04,674.89 622.06,675.46"/>
        <lane id=":356854809-AddedOffRampNode_0_3" index="3" disallow="tram rail_urban rail rail_electric rail_fast ship" speed="8.33" length="8.20" shape="629.83,671.69 621.82,672.27"/>
    </edge>
    <edge id=":3622576381_0" function="internal">
        <lane id=":3622576381_0_0" index="0" disallow="tram rail_urban rail rail_electric rail_fast ship" speed="15.27" length="2.70" shape="529.35,688.92 528.57,689.05 528.05,689.25 527.54,689.46 526.76,689.63"/>
    </edge>
    <edge id=":3622576381_1" function="internal">
        <lane id=":3622576381_1_0" index="0" disallow="tram rail_urban rail rail_electric rail_fast ship" speed="8.33" length="3.01" shape="529.11,685.73 526.28,685.94"/>
        <lane id=":3622576381_1_1" index="1" disallow="tram rail_urban rail rail_electric rail_fast ship" speed="8.33" length="3.01" shape="528.88,682.54 525.87,682.77"/>
        <lane id=":3622576381_1_2" index="2" disallow="tram rail_urban rail rail_electric rail_fast ship" speed="8.33" length="3.01" shape="528.64,679.35 525.47,679.59"/>
    </edge>
    <edge id=":3622576454_0" function="internal">
        <lane id=":3622576454_0_0" index="0" disallow="tram rail_urban rail rail_electric rail_fast ship" speed="18.05" length="3.11" shape="504.54,715.28 504.65,718.39"/>
    </edge>
    <edge id=":3622576454_1" function="internal">
        <lane id=":3622576454_1_0" index="0" disallow="tram rail_urban rail rail_electric rail_fast ship" speed="13.89" length="3.06" shape="501.24,715.56 501.46,718.62"/>
        <lane id=":3622576454_1_1" index="1" disallow="tram rail_urban rail rail_electric rail_fast ship" speed="13.89" length="3.06" shape="498.05,715.78 498.26,718.84"/>
        <lane id=":3622576454_1_2" index="2" disallow="tram rail_urban rail rail_electric rail_fast ship" speed="13.89" length="3.06" shape="494.85,716.00 495.07,719.06"/>
    </edge>
    <edge id=":570129388-AddedOnRampNode_0" function="internal">
        <lane id=":570129388-AddedOnRampNode_0_0" index="0" disallow="tram rail_urban rail rail_electric rail_fast ship" speed="8.33" length="8.00" shape="626.64,656.02 634.62,655.37"/>
        <lane id=":570129388-AddedOnRampNode_0_1" index="1" disallow="tram rail_urban rail rail_electric rail_fast ship" speed="8.33" length="8.00" shape="626.90,659.21 634.88,658.56"/>
        <lane id=":570129388-AddedOnRampNode_0_2" index="2" disallow="tram rail_urban rail rail_electric rail_fast ship" speed="8.33" length="8.00" shape="627.16,662.40 635.13,661.75"/>
    </edge>
    <edge id=":572479039#2-AddedOnRampNode_0" function="internal">
        <lane id=":572479039#2-AddedOnRampNode_0_0" index="0" disallow="tram rail_urban rail rail_electric rail_fast ship" speed="13.89" length="7.96" shape="508.02,812.84 508.71,820.65"/>
        <lane id=":572479039#2-AddedOnRampNode_0_1" index="1" disallow="tram rail_urban rail rail_electric rail_fast ship" speed="13.89" length="7.96" shape="504.83,813.07 505.53,820.99"/>
        <lane id=":572479039#2-AddedOnRampNode_0_2" index="2" disallow="tram rail_urban rail rail_electric rail_fast ship" speed="13.89" length="7.96" shape="501.64,813.29 502.35,821.33"/>
    </edge>
    <edge id=":J1_0" function="internal">
        <lane id=":J1_0_0" index="0" disallow="tram rail_urban rail rail_electric rail_fast ship" speed="15.27" length="25.24" shape="524.26,658.09 528.38,659.16 533.85,659.66 540.79,659.63 549.32,659.11"/>
    </edge>
    <edge id=":J1_1" function="internal">
        <lane id=":J1_1_0" index="0" disallow="tram rail_urban rail rail_electric rail_fast ship" speed="8.33" length="26.07" shape="523.65,661.72 549.58,662.30"/>
        <lane id=":J1_1_1" index="1" disallow="tram rail_urban rail rail_electric rail_fast ship" speed="8.33" length="26.07" shape="523.78,664.92 549.84,665.48"/>
        <lane id=":J1_1_2" index="2" disallow="tram rail_urban rail rail_electric rail_fast ship" speed="8.33" length="26.07" shape="523.91,668.11 550.10,668.67"/>
    </edge>
    <edge id=":J2_0" function="internal">
        <lane id=":J2_0_0" index="0" disallow="tram rail_urban rail rail_electric rail_fast ship" speed="13.89" length="0.30" shape="495.12,629.59 495.14,629.90"/>
        <lane id=":J2_0_1" index="1" disallow="tram rail_urban rail rail_electric rail_fast ship" speed="13.89" length="0.30" shape="491.93,629.82 491.95,630.12"/>
        <lane id=":J2_0_2" index="2" disallow="tram rail_urban rail rail_electric rail_fast ship" speed="13.89" length="0.30" shape="488.74,630.06 488.76,630.34"/>
    </edge>
    <edge id=":J4_0" function="internal">
        <lane id=":J4_0_0" index="0" disallow="tram rail_urban rail rail_electric rail_fast ship" speed="18.05" length="23.73" shape="493.21,602.74 494.14,610.62 495.73,616.82 497.55,621.68 499.19,625.54"/>
    </edge>
    <edge id=":J4_1" function="internal">
        <lane id=":J4_1_0" index="0" disallow="tram rail_urban rail rail_electric rail_fast ship" speed="13.89" length="23.94" shape="493.21,602.74 494.90,626.55"/>
        <lane id=":J4_1_1" index="1" disallow="tram rail_urban rail rail_electric rail_fast ship" speed="13.89" length="23.94" shape="490.01,602.91 491.71,626.79"/>
        <lane id=":J4_1_2" index="2" disallow="tram rail_urban rail rail_electric rail_fast ship" speed="13.89" length="23.94" shape="486.81,603.08 488.51,627.02"/>
    </edge>
    <edge id=":main_interseccion_0" function="internal">
        <lane id=":main_interseccion_0_0" index="0" disallow="tram rail_urban rail rail_electric rail_fast ship" speed="8.33" length="29.19" shape="470.71,695.53 468.80,692.38 463.66,690.43 455.29,689.68 443.70,690.14"/>
    </edge>
    <edge id=":main_interseccion_1" function="internal">
        <lane id=":main_interseccion_1_0" index="0" disallow="tram rail_urban rail rail_electric rail_fast ship" speed="11.11" length="43.61" shape="470.71,695.53 468.21,651.98"/>
        <lane id=":main_interseccion_1_1" index="1" disallow="tram rail_urban rail rail_electric rail_fast ship" speed="11.11" length="43.61" shape="473.91,695.32 471.40,651.78"/>
        <lane id=":main_interseccion_1_2" index="2" disallow="tram rail_urban rail rail_electric rail_fast ship" speed="11.11" length="43.61" shape="477.10,695.10 474.59,651.58"/>
    </edge>
    <edge id=":main_interseccion_4" function="internal">
        <lane id=":main_interseccion_4_0" index="0" disallow="tram rail_urban rail rail_electric rail_fast ship" speed="8.33" length="25.15" shape="477.10,695.10 479.65,686.93 486.61,677.55 490.27,674.27"/>
        <lane id=":main_interseccion_4_1" index="1" disallow="tram rail_urban rail rail_electric rail_fast ship" speed="8.33" length="26.91" shape="477.10,695.10 478.04,684.62 482.76,676.83 489.01,673.09"/>
    </edge>
    <edge id=":main_interseccion_6" function="internal">
        <lane id=":main_interseccion_6_0" index="0" disallow="tram rail_urban rail rail_electric rail_fast ship" speed="7.06" length="20.34" shape="477.10,695.10 480.75,688.75 484.67,686.45 488.86,688.20 491.25,691.32"/>
    </edge>
    <edge id=":main_interseccion_30" function="internal">
        <lane id=":main_interseccion_30_0" index="0" disallow="tram rail_urban rail rail_electric rail_fast ship" speed="8.33" length="15.55" shape="490.27,674.27 495.38,669.70 503.31,666.15"/>
    </edge>
    <edge id=":main_interseccion_31" function="internal">
        <lane id=":main_interseccion_31_0" index="0" disallow="tram rail_urban rail rail_electric rail_fast ship" speed="8.33" length="15.15" shape="489.01,673.09 491.26,671.74 503.55,669.34"/>
    </edge>
    <edge id=":main_interseccion_32" function="internal">
        <lane id=":main_interseccion_32_0" index="0" disallow="tram rail_urban rail rail_electric rail_fast ship" speed="7.06" length="3.40" shape="491.25,691.32 493.32,694.01"/>
    </edge>
    <edge id=":main_interseccion_7" function="internal">
        <lane id=":main_interseccion_7_0" index="0" disallow="tram rail_urban rail rail_electric rail_fast ship" speed="8.33" length="61.27" shape="504.90,687.59 443.70,690.14"/>
        <lane id=":main_interseccion_7_1" index="1" disallow="tram rail_urban rail rail_electric rail_fast ship" speed="8.33" length="61.27" shape="504.66,684.40 443.44,686.96"/>
    </edge>
    <edge id=":main_interseccion_9" function="internal">
        <lane id=":main_interseccion_9_0" index="0" disallow="tram rail_urban rail rail_electric rail_fast ship" speed="11.11" length="23.72" shape="504.66,684.40 495.31,680.87 484.38,672.57"/>
    </edge>
    <edge id=":main_interseccion_10" function="internal">
        <lane id=":main_interseccion_10_0" index="0" disallow="tram rail_urban rail rail_electric rail_fast ship" speed="8.33" length="61.26" shape="504.43,681.20 443.44,686.96"/>
    </edge>
    <edge id=":main_interseccion_11" function="internal">
        <lane id=":main_interseccion_11_0" index="0" disallow="tram rail_urban rail rail_electric rail_fast ship" speed="11.11" length="18.86" shape="504.43,681.20 495.61,678.14 487.97,672.44"/>
        <lane id=":main_interseccion_11_1" index="1" disallow="tram rail_urban rail rail_electric rail_fast ship" speed="11.11" length="17.77" shape="504.43,681.20 496.13,678.11 489.30,672.39"/>
    </edge>
    <edge id=":main_interseccion_13" function="internal">
        <lane id=":main_interseccion_13_0" index="0" disallow="tram rail_urban rail rail_electric rail_fast ship" speed="6.13" length="14.03" shape="504.43,681.20 499.76,678.57 498.06,675.71 499.32,672.63 500.91,671.40"/>
    </edge>
    <edge id=":main_interseccion_33" function="internal">
        <lane id=":main_interseccion_33_0" index="0" disallow="tram rail_urban rail rail_electric rail_fast ship" speed="11.11" length="26.46" shape="484.38,672.57 483.32,671.77 472.90,660.89 468.21,651.98"/>
    </edge>
    <edge id=":main_interseccion_34" function="internal">
        <lane id=":main_interseccion_34_0" index="0" disallow="tram rail_urban rail rail_electric rail_fast ship" speed="11.11" length="26.88" shape="487.97,672.44 484.80,670.07 475.55,660.22 471.40,651.78"/>
    </edge>
    <edge id=":main_interseccion_35" function="internal">
        <lane id=":main_interseccion_35_0" index="0" disallow="tram rail_urban rail rail_electric rail_fast ship" speed="11.11" length="25.84" shape="489.30,672.39 486.42,669.97 478.25,660.04 474.59,651.58"/>
    </edge>
    <edge id=":main_interseccion_36" function="internal">
        <lane id=":main_interseccion_36_0" index="0" disallow="tram rail_urban rail rail_electric rail_fast ship" speed="6.13" length="3.35" shape="500.91,671.40 503.55,669.34"/>
    </edge>
    <edge id=":main_interseccion_14" function="internal">
        <lane id=":main_interseccion_14_0" index="0" disallow="tram rail_urban rail rail_electric rail_fast ship" speed="13.89" length="43.54" shape="496.53,650.17 499.71,693.59"/>
        <lane id=":main_interseccion_14_1" index="1" disallow="tram rail_urban rail rail_electric rail_fast ship" speed="13.89" length="43.54" shape="493.34,650.38 496.51,693.80"/>
        <lane id=":main_interseccion_14_2" index="2" disallow="tram rail_urban rail rail_electric rail_fast ship" speed="13.89" length="43.54" shape="490.14,650.58 493.32,694.01"/>
    </edge>
    <edge id=":main_interseccion_17" function="internal">
        <lane id=":main_interseccion_17_0" index="0" disallow="tram rail_urban rail rail_electric rail_fast ship" speed="11.11" length="21.00" shape="490.14,650.58 484.36,659.95 477.07,666.79"/>
        <lane id=":main_interseccion_17_1" index="1" disallow="tram rail_urban rail rail_electric rail_fast ship" speed="11.11" length="29.25" shape="490.14,650.58 484.30,659.25 470.30,671.24 470.00,671.45"/>
    </edge>
    <edge id=":main_interseccion_19" function="internal">
        <lane id=":main_interseccion_19_0" index="0" disallow="tram rail_urban rail rail_electric rail_fast ship" speed="6.92" length="19.37" shape="490.14,650.58 486.63,656.66 482.86,658.85 478.85,657.16 476.64,654.26"/>
    </edge>
    <edge id=":main_interseccion_37" function="internal">
        <lane id=":main_interseccion_37_0" index="0" disallow="tram rail_urban rail rail_electric rail_fast ship" speed="11.11" length="40.99" shape="477.07,666.79 470.44,673.02 454.77,684.76 443.70,690.14"/>
    </edge>
    <edge id=":main_interseccion_38" function="internal">
        <lane id=":main_interseccion_38_0" index="0" disallow="tram rail_urban rail rail_electric rail_fast ship" speed="11.11" length="30.87" shape="470.00,671.45 454.55,682.00 443.44,686.96"/>
    </edge>
    <edge id=":main_interseccion_39" function="internal">
        <lane id=":main_interseccion_39_0" index="0" disallow="tram rail_urban rail rail_electric rail_fast ship" speed="6.92" length="3.38" shape="476.64,654.26 474.59,651.58"/>
    </edge>
    <edge id=":main_interseccion_20" function="internal">
        <lane id=":main_interseccion_20_0" index="0" disallow="tram rail_urban rail rail_electric rail_fast ship" speed="11.11" length="32.32" shape="441.71,665.42 453.57,663.77 461.94,660.98 466.82,657.05 468.21,651.98"/>
    </edge>
    <edge id=":main_interseccion_21" function="internal">
        <lane id=":main_interseccion_21_0" index="0" disallow="tram rail_urban rail rail_electric rail_fast ship" speed="8.33" length="61.42" shape="441.71,665.42 503.08,662.96"/>
    </edge>
    <edge id=":main_interseccion_22" function="internal">
        <lane id=":main_interseccion_22_0" index="0" disallow="tram rail_urban rail rail_electric rail_fast ship" speed="11.11" length="6.59" shape="441.97,668.61 448.49,667.65"/>
    </edge>
    <edge id=":main_interseccion_23" function="internal">
        <lane id=":main_interseccion_23_0" index="0" disallow="tram rail_urban rail rail_electric rail_fast ship" speed="8.33" length="61.40" shape="441.97,668.61 503.31,666.15"/>
    </edge>
    <edge id=":main_interseccion_24" function="internal">
        <lane id=":main_interseccion_24_0" index="0" disallow="tram rail_urban rail rail_electric rail_fast ship" speed="11.11" length="38.08" shape="441.97,668.61 454.16,671.34 472.39,678.50 477.73,681.23"/>
    </edge>
    <edge id=":main_interseccion_25" function="internal">
        <lane id=":main_interseccion_25_0" index="0" disallow="tram rail_urban rail rail_electric rail_fast ship" speed="8.33" length="61.38" shape="442.22,671.80 503.55,669.34"/>
    </edge>
    <edge id=":main_interseccion_26" function="internal">
        <lane id=":main_interseccion_26_0" index="0" disallow="tram rail_urban rail rail_electric rail_fast ship" speed="11.11" length="35.77" shape="442.22,671.80 454.89,674.11 474.14,680.30 476.61,681.33"/>
        <lane id=":main_interseccion_26_1" index="1" disallow="tram rail_urban rail rail_electric rail_fast ship" speed="11.11" length="34.40" shape="442.22,671.80 454.39,674.11 472.53,680.30 475.13,681.47"/>
        <lane id=":main_interseccion_26_2" index="2" disallow="tram rail_urban rail rail_electric rail_fast ship" speed="11.11" length="33.02" shape="442.22,671.80 453.88,674.10 470.93,680.30 473.63,681.61"/>
    </edge>
    <edge id=":main_interseccion_29" function="internal">
        <lane id=":main_interseccion_29_0" index="0" disallow="tram rail_urban rail rail_electric rail_fast ship" speed="6.84" length="18.79" shape="442.22,671.80 448.21,675.13 450.41,678.77 448.82,682.71 446.12,684.84"/>
    </edge>
    <edge id=":main_interseccion_40" function="internal">
        <lane id=":main_interseccion_40_0" index="0" disallow="tram rail_urban rail rail_electric rail_fast ship" speed="11.11" length="30.67" shape="448.49,667.65 455.19,666.66 464.50,663.20 469.91,658.24 471.40,651.78"/>
    </edge>
    <edge id=":main_interseccion_41" function="internal">
        <lane id=":main_interseccion_41_0" index="0" disallow="tram rail_urban rail rail_electric rail_fast ship" speed="11.11" length="22.80" shape="477.73,681.23 489.04,687.02 496.51,693.80"/>
    </edge>
    <edge id=":main_interseccion_42" function="internal">
        <lane id=":main_interseccion_42_0" index="0" disallow="tram rail_urban rail rail_electric rail_fast ship" speed="11.11" length="26.34" shape="476.61,681.33 491.80,687.69 499.71,693.59"/>
    </edge>
    <edge id=":main_interseccion_43" function="internal">
        <lane id=":main_interseccion_43_0" index="0" disallow="tram rail_urban rail rail_electric rail_fast ship" speed="11.11" length="24.89" shape="475.13,681.47 489.10,687.75 496.51,693.80"/>
    </edge>
    <edge id=":main_interseccion_44" function="internal">
        <lane id=":main_interseccion_44_0" index="0" disallow="tram rail_urban rail rail_electric rail_fast ship" speed="11.11" length="23.50" shape="473.63,681.61 486.40,687.81 493.32,694.01"/>
    </edge>
    <edge id=":main_interseccion_45" function="internal">
        <lane id=":main_interseccion_45_0" index="0" disallow="tram rail_urban rail rail_electric rail_fast ship" speed="6.84" length="3.41" shape="446.12,684.84 443.44,686.96"/>
    </edge>

    <edge id="E" from="3622576381" to="main_interseccion" name="Carrera 70" priority="10" type="highway.tertiary" spreadType="center" shape="526.34,682.73 501.87,684.61 495.92,685.03">
        <lane id="E_0" index="0" disallow="tram rail_urban rail rail_electric rail_fast ship" speed="8.33" length="21.27" shape="526.28,685.94 504.90,687.59">
            <param key="origId" value="570129394"/>
        </lane>
        <lane id="E_1" index="1" disallow="tram rail_urban rail rail_electric rail_fast ship" speed="8.33" length="21.27" shape="525.87,682.77 504.66,684.40">
            <param key="origId" value="570129394"/>
        </lane>
        <lane id="E_2" index="2" disallow="tram rail_urban rail rail_electric rail_fast ship" speed="8.33" length="21.27" shape="525.47,679.59 504.43,681.20">
            <param key="origId" value="570129394"/>
        </lane>
        <param key="origTo" value="2164402551"/>
    </edge>
    <edge id="E0" from="5481745912" to="356854809-AddedOffRampNode" name="Carrera 70" priority="10" type="highway.tertiary" spreadType="center">
        <lane id="E0_0" index="0" disallow="tram rail_urban rail rail_electric rail_fast ship" speed="8.33" length="384.27" shape="1013.64,651.84 630.26,678.08">
            <param key="origId" value="356854809"/>
        </lane>
        <lane id="E0_1" index="1" disallow="tram rail_urban rail rail_electric rail_fast ship" speed="8.33" length="384.27" shape="1013.42,648.65 630.04,674.89">
            <param key="origId" value="356854809"/>
        </lane>
        <lane id="E0_2" index="2" disallow="tram rail_urban rail rail_electric rail_fast ship" speed="8.33" length="384.27" shape="1013.20,645.46 629.83,671.69">
            <param key="origId" value="356854809"/>
        </lane>
    </edge>
    <edge id="E1" from="356854809-AddedOffRampNode" to="3622576381" name="Carrera 70" priority="10" type="highway.tertiary" spreadType="center" shape="626.17,676.76 614.98,677.60 593.80,679.36 526.46,684.32">
        <lane id="E1_0" index="0" disallow="tram rail_urban rail rail_electric rail_fast ship" speed="8.33" length="93.45" shape="622.54,681.85 615.36,682.39 594.18,684.15 529.35,688.92">
            <param key="origId" value="356854809"/>
        </lane>
        <lane id="E1_1" index="1" disallow="tram rail_urban rail rail_electric rail_fast ship" speed="8.33" length="93.45" shape="622.30,678.65 615.11,679.20 593.93,680.96 529.11,685.73">
            <param key="origId" value="356854809"/>
        </lane>
        <lane id="E1_2" index="2" disallow="tram rail_urban rail rail_electric rail_fast ship" speed="8.33" length="93.45" shape="622.06,675.46 614.85,676.00 593.67,677.76 528.88,682.54">
            <param key="origId" value="356854809"/>
        </lane>
        <lane id="E1_3" index="3" disallow="tram rail_urban rail rail_electric rail_fast ship" speed="8.33" length="93.45" shape="621.82,672.27 614.60,672.81 593.42,674.57 528.64,679.35">
            <param key="origId" value="356854809"/>
        </lane>
    </edge>
    <edge id="EA0" from="main_interseccion" to="5952748235" name="Carrera 70" priority="10" type="highway.tertiary" spreadType="center" shape="443.57,688.55 360.45,695.24 308.33,698.77 303.60,699.10 225.57,704.39 71.02,716.84 0.00,724.87">
        <lane id="EA0_0" index="0" disallow="tram rail_urban rail rail_electric rail_fast ship" speed="8.33" length="445.10" shape="443.70,690.14 360.57,696.84 308.44,700.37 303.71,700.70 225.69,705.99 71.17,718.43 0.18,726.46">
            <param key="origId" value="356393276"/>
        </lane>
        <lane id="EA0_1" index="1" disallow="tram rail_urban rail rail_electric rail_fast ship" speed="8.33" length="445.10" shape="443.44,686.96 360.33,693.64 308.22,697.17 303.49,697.50 225.45,702.79 70.87,715.25 -0.18,723.28">
            <param key="origId" value="356393276"/>
        </lane>
        <param key="origFrom" value="3622576353"/>
    </edge>
    <edge id="N" from="2680622887" to="main_interseccion" name="Calle 13" priority="11" type="highway.secondary" spreadType="center" shape="513.65,1187.98 512.46,1180.71 507.84,1149.89 506.16,1126.24 501.51,1060.71 493.35,945.09 483.73,820.20 477.94,745.05 476.64,729.33 475.85,719.50">
        <lane id="N_0" index="0" disallow="tram rail_urban rail rail_electric rail_fast ship" speed="8.33" length="494.37" shape="510.49,1188.50 509.30,1181.21 504.66,1150.24 502.97,1126.47 498.32,1060.94 490.16,945.33 480.54,820.45 474.75,745.30 473.45,729.59 470.71,695.53">
            <param key="origId" value="570129387"/>
        </lane>
        <lane id="N_1" index="1" disallow="tram rail_urban rail rail_electric rail_fast ship" speed="8.33" length="494.37" shape="513.65,1187.98 512.46,1180.71 507.84,1149.89 506.16,1126.24 501.51,1060.71 493.35,945.09 483.73,820.20 477.94,745.05 476.64,729.33 473.91,695.32">
            <param key="origId" value="570129387"/>
        </lane>
        <lane id="N_2" index="2" disallow="tram rail_urban rail rail_electric rail_fast ship" speed="8.33" length="494.37" shape="516.81,1187.46 515.62,1180.21 511.02,1149.54 509.35,1126.01 504.70,1060.48 496.54,944.85 486.92,819.95 481.13,744.80 479.83,729.07 477.10,695.10">
            <param key="origId" value="570129387"/>
        </lane>
        <param key="origTo" value="3622576413"/>
    </edge>
    <edge id="NA0" from="main_interseccion" to="2172154306" name="Calle 13" priority="11" type="highway.secondary" spreadType="center" shape="471.40,651.78 429.90,2.29">
        <lane id="NA0_0" index="0" disallow="tram rail_urban rail rail_electric rail_fast ship" speed="13.89" length="650.81" shape="468.21,651.98 426.71,2.49">
            <param key="origId" value="570129379"/>
        </lane>
        <lane id="NA0_1" index="1" disallow="tram rail_urban rail rail_electric rail_fast ship" speed="13.89" length="650.81" shape="471.40,651.78 429.90,2.29">
            <param key="origId" value="570129379"/>
        </lane>
        <lane id="NA0_2" index="2" disallow="tram rail_urban rail rail_electric rail_fast ship" speed="13.89" length="650.81" shape="474.59,651.58 433.09,2.09">
            <param key="origId" value="570129379"/>
        </lane>
        <param key="origFrom" value="3622576419"/>
    </edge>
    <edge id="S" from="J2" to="main_interseccion" name="Calle 13" priority="11" type="highway.secondary" spreadType="center" shape="491.94,629.97 493.35,650.58">
        <lane id="S_0" index="0" disallow="tram rail_urban rail rail_electric rail_fast ship" speed="13.89" length="20.31" shape="495.14,629.90 496.53,650.17">
            <param key="origId" value="571505150 921430816"/>
        </lane>
        <lane id="S_1" index="1" disallow="tram rail_urban rail rail_electric rail_fast ship" speed="13.89" length="20.31" shape="491.95,630.12 493.34,650.38">
            <param key="origId" value="571505150 921430816"/>
        </lane>
        <lane id="S_2" index="2" disallow="tram rail_urban rail rail_electric rail_fast ship" speed="13.89" length="20.31" shape="488.76,630.34 490.14,650.58">
            <param key="origId" value="571505150 921430816"/>
        </lane>
        <param key="origTo" value="2164664304"/>
    </edge>
    <edge id="S0" from="4640174026" to="J4" name="Calle 13" priority="11" type="highway.secondary" spreadType="center" shape="457.36,0.00 490.01,602.91">
        <lane id="S0_0" index="0" disallow="tram rail_urban rail rail_electric rail_fast ship" speed="13.89" length="603.79" shape="460.56,-0.17 493.21,602.74">
            <param key="origId" value="408747258"/>
        </lane>
        <lane id="S0_1" index="1" disallow="tram rail_urban rail rail_electric rail_fast ship" speed="13.89" length="603.79" shape="457.36,0.00 490.01,602.91">
            <param key="origId" value="408747258"/>
        </lane>
        <lane id="S0_2" index="2" disallow="tram rail_urban rail rail_electric rail_fast ship" speed="13.89" length="603.79" shape="454.16,0.17 486.81,603.08">
            <param key="origId" value="408747258"/>
        </lane>
    </edge>
    <edge id="S1" from="J4" to="J2" name="Calle 13" priority="11" type="highway.secondary" spreadType="center" shape="489.95,602.91 491.94,629.97">
        <lane id="S1_0" index="0" disallow="tram rail_urban rail rail_electric rail_fast ship" speed="13.89" length="3.04" shape="494.90,626.55 495.12,629.59">
            <param key="origId" value="408747258"/>
        </lane>
        <lane id="S1_1" index="1" disallow="tram rail_urban rail rail_electric rail_fast ship" speed="13.89" length="3.04" shape="491.71,626.79 491.93,629.82">
            <param key="origId" value="408747258"/>
        </lane>
        <lane id="S1_2" index="2" disallow="tram rail_urban rail rail_electric rail_fast ship" speed="13.89" length="3.04" shape="488.51,627.02 488.74,630.06">
            <param key="origId" value="408747258"/>
        </lane>
    </edge>
    <edge id="SA0" from="main_interseccion" to="3622576454" name="Calle 13" priority="11" type="highway.secondary" spreadType="center" shape="495.92,685.03 496.37,691.74 498.15,717.26">
        <lane id="SA0_0" index="0" disallow="tram rail_urban rail rail_electric rail_fast ship" speed="13.89" length="22.03" shape="499.71,693.59 501.24,715.56">
            <param key="origId" value="572479039"/>
        </lane>
        <lane id="SA0_1" index="1" disallow="tram rail_urban rail rail_electric rail_fast ship" speed="13.89" length="22.03" shape="496.51,693.80 498.05,715.78">
            <param key="origId" value="572479039"/>
        </lane>
        <lane id="SA0_2" index="2" disallow="tram rail_urban rail rail_electric rail_fast ship" speed="13.89" length="22.03" shape="493.32,694.01 494.85,716.00">
            <param key="origId" value="572479039"/>
        </lane>
        <param key="origFrom" value="2164402551"/>
    </edge>
    <edge id="SA1" from="3622576454" to="572479039#2-AddedOnRampNode" name="Calle 13" priority="11" type="highway.secondary" spreadType="center" shape="499.75,717.15 506.70,816.91">
        <lane id="SA1_0" index="0" disallow="tram rail_urban rail rail_electric rail_fast ship" speed="13.89" length="94.46" acceleration="1" shape="504.65,718.39 511.21,812.62">
            <param key="origId" value="572479039"/>
        </lane>