<?xml version="1.0" encoding="UTF-8"?>

<!-- generated on 2024-06-01 19:18:13 by Eclipse SUMO netedit Version 1.19.0
-->

<additional xmlns:xsi="http://www.w3.org/2001/XMLSchema-instance" xsi:noNamespaceSchemaLocation="http://sumo.dlr.de/xsd/additional_file.xsd">
    <!-- Detectors -->
    <inductionLoop id="E1Sensor_E2_0" lane="E2_0" pos="-0.5" period="1.00" file="logs/output_E2_0.xml" friendlyPos="1"/>
    <inductionLoop id="E1Sensor_E2_1" lane="E2_1" pos="-0.5" period="1.00" file="logs/output_E2_1.xml" friendlyPos="1"/>
    <inductionLoop id="E1Sensor_E2_2" lane="E2_2" pos="-0.5" period="1.00" file="logs/output_E2_2.xml" friendlyPos="1"/>
    <inductionLoop id="E1Sensor_N0_0" lane="N0_0" pos="-0.5" period="1.00" file="logs/output_N0_0_0.xml" friendlyPos="1"/>
    <inductionLoop id="E1Sensor_N0_1" lane="N0_1" pos="-0.5" period="1.00" file="logs/output_N0_1.xml" friendlyPos="1"/>
    <inductionLoop id="E1Sensor_N0_2" lane="N0_2" pos="-0.5" period="1.00" file="logs/output_N0_2.xml" friendlyPos="1"/>
    <inductionLoop id="E1Sensor_S2_0" lane="S2_0" pos="-0.5" period="1.00" file="logs/output_S2_0.xml" friendlyPos="1"/>
    <inductionLoop id="E1Sensor_S2_1" lane="S2_1" pos="-0.5" period="1.00" file="logs/output_S2_1.xml" friendlyPos="1"/>
    <inductionLoop id="E1Sensor_S2_2" lane="S2_2" pos="-0.5" period="1.00" file="logs/output_S2_2.xml" friendlyPos="1"/>
    <inductionLoop id="E1Sensor_W0_0" lane="W0_0" pos="-0.5" period="1.00" file="logs/output_W0_0.xml" friendlyPos="1"/>
    <inductionLoop id="E1Sensor_W0_1" lane="W0_1" pos="-0.5" period="1.00" file="logs/output_W0_1.xml" friendlyPos="1"/>
    <inductionLoop id="E1Sensor_W0_2" lane="W0_2" pos="-0.5" period="1.00" file="logs/output_W0_2.xml" friendlyPos="1"/>
    <!-- Shapes -->
    <poly id="211437440" type="leisure.pitch" color="207,245,201" fill="1" layer="-2.00" shape="589.980000,592.570000 585.710000,588.760000 503.840000,599.310000 507.490000,632.100000 511.990000,641.660000 526.880000,652.660000 550.020000,653.270000 579.390000,651.400000 598.660000,649.560000 592.130000,597.100000 589.990000,592.770000"/>
    <poly id="571160049" type="building.commercial" color="255,230,230" fill="1" layer="-1.00" shape="377.574850,548.973818 414.788956,546.330915 415.234234,552.531143 422.158306,552.029326 424.340168,582.829744 418.006089,583.286955 418.495895,590.145123 439.590938,588.650823 441.661481,617.945800 448.852720,617.432831 450.333269,638.330737 426.644482,640.014613 427.145419,647.106966 384.743825,650.117871 381.459900,603.816855 380.591608,591.483302 377.574850,548.973818"/>
    <poly id="571160049#1" type="shop.car" color="237,199,255" fill="1" layer="-1.00" shape="377.570000,548.970000 414.790000,546.330000 415.230000,552.530000 422.160000,552.030000 424.340000,582.830000 418.010000,583.290000 418.500000,590.150000 439.590000,588.650000 441.660000,617.950000 448.850000,617.430000 450.330000,638.330000 426.640000,640.010000 427.150000,647.110000 384.740000,650.120000 381.460000,603.820000 380.590000,591.480000 377.570000,548.970000"/>
    <poi id="4408269760" type="man_made.surveillance" color="255,230,230" layer="4.00" x="480.37" y="654.53"/>
</additional>
