<?xml version="1.0" encoding="UTF-8"?>

<!-- generated on 2024-03-29 19:29:16.639194 by osmWebWizard.py cecae229d
<configuration>
    <net-file value="/home/etensor/Tesis/sumo/sumo/tools/2024-03-29-19-29-14/osm.net.xml.gz"/>
    <output-trip-file value="/home/etensor/Tesis/sumo/sumo/tools/2024-03-29-19-29-14/osm.passenger.trips.xml"/>
    <route-file value="/home/etensor/Tesis/sumo/sumo/tools/2024-03-29-19-29-14/osm.passenger.rou.xml"/>
    <prefix value="veh"/>
    <trip-attributes value="departLane=&quot;best&quot;"/>
    <fringe-start-attributes value="departSpeed=&quot;max&quot;"/>
    <vehicle-class value="passenger"/>
    <lanes value="True"/>
    <fringe-factor value="5"/>
    <allow-fringe.min-length value="1000.0"/>
    <via-edge-types value="highway.motorway,highway.motorway_link,highway.trunk_link,highway.primary_link,highway.secondary_link,highway.tertiary_link"/>
    <min-distance value="300.0"/>
    <min-distance.fringe value="10.0"/>
    <remove-loops value="True"/>
    <validate value="True"/>
    <insertion-density value="200.0"/>
</configuration>
-->

<!-- generated on 2024-03-29 19:29:16 by Eclipse SUMO duarouter Version 1.19.0
<configuration xmlns:xsi="http://www.w3.org/2001/XMLSchema-instance" xsi:noNamespaceSchemaLocation="http://sumo.dlr.de/xsd/duarouterConfiguration.xsd">

    <input>
        <net-file value="/home/etensor/Tesis/sumo/sumo/tools/2024-03-29-19-29-14/osm.net.xml.gz"/>
        <route-files value="/home/etensor/Tesis/sumo/sumo/tools/2024-03-29-19-29-14/osm.passenger.trips.xml"/>
    </input>

    <output>
        <output-file value="/home/etensor/Tesis/sumo/sumo/tools/2024-03-29-19-29-14/osm.passenger.trips.xml.tmp"/>
        <alternatives-output value="NUL"/>
        <write-trips value="true"/>
    </output>

    <processing>
        <remove-loops value="true"/>
    </processing>

    <time>
        <begin value="0.0"/>
        <end value="3600.0"/>
    </time>

    <report>
        <no-warnings value="true"/>
        <ignore-errors value="true"/>
        <no-step-log value="true"/>
    </report>

</configuration>
-->

<routes xmlns:xsi="http://www.w3.org/2001/XMLSchema-instance" xsi:noNamespaceSchemaLocation="http://sumo.dlr.de/xsd/routes_file.xsd">
    <vType id="veh_passenger" vClass="passenger"/>
    <trip id="veh1" type="veh_passenger" depart="1.94" departLane="best" departSpeed="max" from="408747258" to="408747258-AddedOffRampEdge"/>
    <trip id="veh3" type="veh_passenger" depart="5.81" departLane="best" from="408747258-AddedOffRampEdge" to="356393276#0"/>
    <trip id="veh4" type="veh_passenger" depart="7.74" departLane="best" departSpeed="max" from="408747258" to="570129388"/>
    <trip id="veh5" type="veh_passenger" depart="9.68" departLane="best" departSpeed="max" from="356854809" to="356854809-AddedOffRampEdge"/>
    <trip id="veh6" type="veh_passenger" depart="11.61" departLane="best" departSpeed="max" from="570129391" to="570129388"/>
    <trip id="veh7" type="veh_passenger" depart="13.55" departLane="best" departSpeed="max" from="408747258" to="570129388"/>
    <trip id="veh8" type="veh_passenger" depart="15.49" departLane="best" departSpeed="max" from="570129391" to="356393276#0"/>
    <trip id="veh9" type="veh_passenger" depart="17.42" departLane="best" departSpeed="max" from="408747258" to="356393276#0"/>
    <trip id="veh10" type="veh_passenger" depart="19.36" departLane="best" departSpeed="max" from="356854809" to="356393276#0"/>
    <trip id="veh11" type="veh_passenger" depart="21.29" departLane="best" departSpeed="max" from="570129387" to="572479049#0"/>
    <trip id="veh12" type="veh_passenger" depart="23.23" departLane="best" from="408747258-AddedOffRampEdge" to="570129388"/>
    <trip id="veh14" type="veh_passenger" depart="27.10" departLane="best" departSpeed="max" from="570129391" to="356393276#0"/>
    <trip id="veh15" type="veh_passenger" depart="29.04" departLane="best" departSpeed="max" from="408747258" to="570129379"/>
    <trip id="veh17" type="veh_passenger" depart="32.91" departLane="best" departSpeed="max" from="356854809" to="570129379"/>
    <trip id="veh19" type="veh_passenger" depart="36.78" departLane="best" departSpeed="max" from="408747258" to="572479039#2-AddedOnRampEdge"/>
    <trip id="veh20" type="veh_passenger" depart="38.71" departLane="best" departSpeed="max" from="570129391" to="570129388-AddedOnRampEdge"/>
    <trip id="veh21" type="veh_passenger" depart="40.65" departLane="best" departSpeed="max" from="356854809" to="570129379"/>
    <trip id="veh23" type="veh_passenger" depart="44.52" departLane="best" departSpeed="max" from="408747258" to="356393276#0"/>
    <trip id="veh24" type="veh_passenger" depart="46.46" departLane="best" departSpeed="max" from="408747258" to="570129379"/>
    <trip id="veh26" type="veh_passenger" depart="50.33" departLane="best" departSpeed="max" from="408747258" to="408747258-AddedOffRampEdge"/>
    <trip id="veh28" type="veh_passenger" depart="54.20" departLane="best" from="572479049#0" to="570129388"/>
    <trip id="veh29" type="veh_passenger" depart="56.14" departLane="best" departSpeed="max" from="356854809" to="356393276#0"/>
    <trip id="veh30" type="veh_passenger" depart="58.07" departLane="best" departSpeed="max" from="356854809" to="570129388-AddedOnRampEdge"/>
    <trip id="veh31" type="veh_passenger" depart="60.01" departLane="best" departSpeed="max" from="356854809" to="570129379"/>
    <trip id="veh32" type="veh_passenger" depart="61.94" departLane="best" from="572479049#0" to="570129388"/>
    <trip id="veh34" type="veh_passenger" depart="65.81" departLane="best" departSpeed="max" from="570129391" to="570129388"/>
    <trip id="veh35" type="veh_passenger" depart="67.75" departLane="best" departSpeed="max" from="408747258" to="570129388-AddedOnRampEdge"/>
    <trip id="veh36" type="veh_passenger" depart="69.69" departLane="best" departSpeed="max" from="570129387" to="572479039#2-AddedOnRampEdge"/>
    <trip id="veh38" type="veh_passenger" depart="73.56" departLane="best" departSpeed="max" from="408747258" to="570129388-AddedOnRampEdge"/>
    <trip id="veh40" type="veh_passenger" depart="77.43" departLane="best" departSpeed="max" from="570129391" to="570129388"/>
    <trip id="veh41" type="veh_passenger" depart="79.36" departLane="best" departSpeed="max" from="570129391" to="570129388"/>
    <trip id="veh42" type="veh_passenger" depart="81.30" departLane="best" departSpeed="max" from="356854809" to="570129379"/>
    <trip id="veh43" type="veh_passenger" depart="83.24" departLane="best" departSpeed="max" from="356854809" to="572479039#2-AddedOnRampEdge"/>
    <trip id="veh44" type="veh_passenger" depart="85.17" departLane="best" from="571505150" to="572479039#2"/>
    <trip id="veh45" type="veh_passenger" depart="87.11" departLane="best" departSpeed="max" from="408747258" to="356393276#0"/>
    <trip id="veh46" type="veh_passenger" depart="89.04" departLane="best" departSpeed="max" from="356854809" to="572479039#2"/>
    <trip id="veh47" type="veh_passenger" depart="90.98" departLane="best" departSpeed="max" from="570129391" to="356393276#0"/>
    <trip id="veh48" type="veh_passenger" depart="92.92" departLane="best" departSpeed="max" from="570129387" to="570129388"/>
    <trip id="veh49" type="veh_passenger" depart="94.85" departLane="best" departSpeed="max" from="408747258" to="572479039#2"/>
    <trip id="veh50" type="veh_passenger" depart="96.79" departLane="best" departSpeed="max" from="570129387" to="572479039#0"/>
    <trip id="veh51" type="veh_passenger" depart="98.72" departLane="best" departSpeed="max" from="570129387" to="570129388"/>
    <trip id="veh53" type="veh_passenger" depart="102.59" departLane="best" departSpeed="max" from="408747258" to="570129388"/>
    <trip id="veh54" type="veh_passenger" depart="104.53" departLane="best" departSpeed="max" from="408747258" to="408747258-AddedOffRampEdge"/>
    <trip id="veh55" type="veh_passenger" depart="106.47" departLane="best" departSpeed="max" from="356854809" to="570129388-AddedOnRampEdge"/>
    <trip id="veh56" type="veh_passenger" depart="108.40" departLane="best" departSpeed="max" from="408747258" to="572479039#2"/>
    <trip id="veh57" type="veh_passenger" depart="110.34" departLane="best" from="571505150" to="356393276#0"/>
    <trip id="veh59" type="veh_passenger" depart="114.21" departLane="best" departSpeed="max" from="408747258" to="356393276#0"/>
    <trip id="veh61" type="veh_passenger" depart="118.08" departLane="best" departSpeed="max" from="356854809" to="570129379"/>
    <trip id="veh62" type="veh_passenger" depart="120.02" departLane="best" from="408747258-AddedOffRampEdge" to="570129388"/>
    <trip id="veh64" type="veh_passenger" depart="123.89" departLane="best" departSpeed="max" from="408747258" to="572479039#2-AddedOnRampEdge"/>
    <trip id="veh65" type="veh_passenger" depart="125.82" departLane="best" departSpeed="max" from="570129387" to="356393276#0"/>
    <trip id="veh66" type="veh_passenger" depart="127.76" departLane="best" from="571505150" to="356393276#0"/>
    <trip id="veh68" type="veh_passenger" depart="131.63" departLane="best" from="408747258-AddedOffRampEdge" to="356393276#0"/>
    <trip id="veh69" type="veh_passenger" depart="133.57" departLane="best" departSpeed="max" from="408747258" to="572479039#2"/>
    <trip id="veh70" type="veh_passenger" depart="135.50" departLane="best" departSpeed="max" from="570129387" to="570129379"/>
    <trip id="veh72" type="veh_passenger" depart="139.37" departLane="best" departSpeed="max" from="356854809" to="570129379"/>
    <trip id="veh73" type="veh_passenger" depart="141.31" departLane="best" from="572479049#0" to="570129388"/>
    <trip id="veh74" type="veh_passenger" depart="143.24" departLane="best" departSpeed="max" from="570129387" to="572479039#0"/>
    <trip id="veh75" type="veh_passenger" depart="145.18" departLane="best" departSpeed="max" from="356854809" to="572479039#2-AddedOnRampEdge"/>
    <trip id="veh76" type="veh_passenger" depart="147.12" departLane="best" departSpeed="max" from="356854809" to="356854809-AddedOffRampEdge"/>
    <trip id="veh78" type="veh_passenger" depart="150.99" departLane="best" departSpeed="max" from="408747258" to="356393276#0"/>
    <trip id="veh79" type="veh_passenger" depart="152.92" departLane="best" departSpeed="max" from="570129387" to="570129388-AddedOnRampEdge"/>
    <trip id="veh80" type="veh_passenger" depart="154.86" departLane="best" from="408747258-AddedOffRampEdge" to="570129388"/>
    <trip id="veh81" type="veh_passenger" depart="156.79" departLane="best" departSpeed="max" from="570129387" to="572479039#2-AddedOnRampEdge"/>
    <trip id="veh82" type="veh_passenger" depart="158.73" departLane="best" departSpeed="max" from="408747258" to="570129379"/>
    <trip id="veh83" type="veh_passenger" depart="160.67" departLane="best" departSpeed="max" from="408747258" to="572479039#0"/>
    <trip id="veh85" type="veh_passenger" depart="164.54" departLane="best" departSpeed="max" from="408747258" to="572479039#2-AddedOnRampEdge"/>
    <trip id="veh86" type="veh_passenger" depart="166.47" departLane="best" from="571505150" to="572479039#2"/>
    <trip id="veh87" type="veh_passenger" depart="168.41" departLane="best" departSpeed="max" from="408747258" to="356393276#0"/>
    <trip id="veh88" type="veh_passenger" depart="170.34" departLane="best" departSpeed="max" from="570129391" to="356393276#0"/>
    <trip id="veh89" type="veh_passenger" depart="172.28" departLane="best" departSpeed="max" from="356854809" to="356393276#0"/>
    <trip id="veh90" type="veh_passenger" depart="174.22" departLane="best" departSpeed="max" from="408747258" to="570129388-AddedOnRampEdge"/>
    <trip id="veh91" type="veh_passenger" depart="176.15" departLane="best" from="571505150" to="356393276#0"/>
    <trip id="veh92" type="veh_passenger" depart="178.09" departLane="best" departSpeed="max" from="356854809" to="572479039#2"/>
    <trip id="veh93" type="veh_passenger" depart="180.02" departLane="best" departSpeed="max" from="570129391" to="570129388"/>
    <trip id="veh94" type="veh_passenger" depart="181.96" departLane="best" from="408747258-AddedOffRampEdge" to="356393276#0"/>
    <trip id="veh95" type="veh_passenger" depart="183.89" departLane="best" departSpeed="max" from="356854809" to="572479039#2"/>
    <trip id="veh97" type="veh_passenger" depart="187.77" departLane="best" departSpeed="max" from="356854809" to="356393276#0"/>
    <trip id="veh98" type="veh_passenger" depart="189.70" departLane="best" departSpeed="max" from="408747258" to="572479039#2"/>
    <trip id="veh99" type="veh_passenger" depart="191.64" departLane="best" departSpeed="max" from="570129391" to="572479039#2"/>
    <trip id="veh100" type="veh_passenger" depart="193.57" departLane="best" departSpeed="max" from="408747258" to="356393276#0"/>
    <trip id="veh101" type="veh_passenger" depart="195.51" departLane="best" departSpeed="max" from="570129391" to="572479039#2"/>
    <trip id="veh102" type="veh_passenger" depart="197.44" departLane="best" departSpeed="max" from="356854809" to="572479039#2-AddedOnRampEdge"/>
    <trip id="veh103" type="veh_passenger" depart="199.38" departLane="best" departSpeed="max" from="570129391" to="572479039#2"/>
    <trip id="veh105" type="veh_passenger" depart="203.25" departLane="best" departSpeed="max" from="408747258" to="572479039#2-AddedOnRampEdge"/>
    <trip id="veh106" type="veh_passenger" depart="205.19" departLane="best" departSpeed="max" from="570129391" to="572479039#2"/>
    <trip id="veh107" type="veh_passenger" depart="207.12" departLane="best" departSpeed="max" from="570129391" to="356393276#0"/>
    <trip id="veh108" type="veh_passenger" depart="209.06" departLane="best" from="571505150" to="572479039#2"/>
    <trip id="veh109" type="veh_passenger" depart="210.99" departLane="best" departSpeed="max" from="408747258" to="572479039#2"/>
    <trip id="veh110" type="veh_passenger" depart="212.93" departLane="best" departSpeed="max" from="570129387" to="570129379"/>
    <trip id="veh111" type="veh_passenger" depart="214.87" departLane="best" departSpeed="max" from="356854809" to="356854809-AddedOffRampEdge"/>
    <trip id="veh112" type="veh_passenger" depart="216.80" departLane="best" departSpeed="max" from="408747258" to="572479039#2"/>
    <trip id="veh113" type="veh_passenger" depart="218.74" departLane="best" from="572479049#0" to="570129388"/>
    <trip id="veh115" type="veh_passenger" depart="222.61" departLane="best" from="408747258-AddedOffRampEdge" to="570129388"/>
    <trip id="veh116" type="veh_passenger" depart="224.54" departLane="best" departSpeed="max" from="408747258" to="571505150"/>
    <trip id="veh117" type="veh_passenger" depart="226.48" departLane="best" departSpeed="max" from="356854809" to="572479039#2-AddedOnRampEdge"/>
    <trip id="veh119" type="veh_passenger" depart="230.35" departLane="best" departSpeed="max" from="408747258" to="356393276#0"/>
    <trip id="veh120" type="veh_passenger" depart="232.29" departLane="best" departSpeed="max" from="408747258" to="572479039#2"/>
    <trip id="veh121" type="veh_passenger" depart="234.22" departLane="best" departSpeed="max" from="408747258" to="570129379"/>
    <trip id="veh122" type="veh_passenger" depart="236.16" departLane="best" departSpeed="max" from="356854809" to="570129379"/>
    <trip id="veh123" type="veh_passenger" depart="238.09" departLane="best" departSpeed="max" from="408747258" to="570129388"/>
    <trip id="veh124" type="veh_passenger" depart="240.03" departLane="best" departSpeed="max" from="356854809" to="570129379"/>
    <trip id="veh125" type="veh_passenger" depart="241.97" departLane="best" from="408747258-AddedOffRampEdge" to="570129388"/>
    <trip id="veh126" type="veh_passenger" depart="243.90" departLane="best" departSpeed="max" from="570129391" to="570129388"/>
    <trip id="veh128" type="veh_passenger" depart="247.77" departLane="best" from="356854809-AddedOffRampEdge" to="356393276#0"/>
    <trip id="veh129" type="veh_passenger" depart="249.71" departLane="best" departSpeed="max" from="408747258" to="570129388"/>
    <trip id="veh130" type="veh_passenger" depart="251.64" departLane="best" from="571505150" to="356393276#0"/>
    <trip id="veh132" type="veh_passenger" depart="255.52" departLane="best" departSpeed="max" from="570129391" to="356393276#0"/>
    <trip id="veh133" type="veh_passenger" depart="257.45" departLane="best" departSpeed="max" from="570129391" to="572479039#2"/>
    <trip id="veh134" type="veh_passenger" depart="259.39" departLane="best" departSpeed="max" from="356854809" to="570129379"/>
    <trip id="veh135" type="veh_passenger" depart="261.32" departLane="best" departSpeed="max" from="570129387" to="356393276#0"/>
    <trip id="veh136" type="veh_passenger" depart="263.26" departLane="best" departSpeed="max" from="408747258" to="572479039#2"/>
    <trip id="veh137" type="veh_passenger" depart="265.19" departLane="best" departSpeed="max" from="570129387" to="572479039#2-AddedOnRampEdge"/>
    <trip id="veh138" type="veh_passenger" depart="267.13" departLane="best" departSpeed="max" from="570129391" to="570129388"/>
    <trip id="veh140" type="veh_passenger" depart="271.00" departLane="best" departSpeed="max" from="408747258" to="570129388-AddedOnRampEdge"/>
    <trip id="veh141" type="veh_passenger" depart="272.94" departLane="best" departSpeed="max" from="570129391" to="570129388"/>
    <trip id="veh142" type="veh_passenger" depart="274.87" departLane="best" departSpeed="max" from="356854809" to="570129379"/>
    <trip id="veh143" type="veh_passenger" depart="276.81" departLane="best" departSpeed="max" from="408747258" to="570129379"/>
    <trip id="veh144" type="veh_passenger" depart="278.75" departLane="best" departSpeed="max" from="570129387" to="356393276#0"/>
    <trip id="veh145" type="veh_passenger" depart="280.68" departLane="best" departSpeed="max" from="408747258" to="571505150"/>
    <trip id="veh146" type="veh_passenger" depart="282.62" departLane="best" departSpeed="max" from="570129391" to="356393276#0"/>
    <trip id="veh147" type="veh_passenger" depart="284.55" departLane="best" from="408747258-AddedOffRampEdge" to="570129388"/>
    <trip id="veh148" type="veh_passenger" depart="286.49" departLane="best" from="408747258-AddedOffRampEdge" to="572479039#2"/>
    <trip id="veh150" type="veh_passenger" depart="290.36" departLane="best" from="571505150" to="572479039#2"/>
    <trip id="veh151" type="veh_passenger" depart="292.30" departLane="best" from="408747258-AddedOffRampEdge" to="356393276#0"/>
    <trip id="veh152" type="veh_passenger" depart="294.23" departLane="best" departSpeed="max" from="408747258" to="572479039#0"/>
    <trip id="veh153" type="veh_passenger" depart="296.17" departLane="best" departSpeed="max" from="570129387" to="570129388-AddedOnRampEdge"/>
    <trip id="veh154" type="veh_passenger" depart="298.10" departLane="best" departSpeed="max" from="408747258" to="408747258-AddedOffRampEdge"/>
    <trip id="veh155" type="veh_passenger" depart="300.04" departLane="best" departSpeed="max" from="570129387" to="356393276#0"/>
    <trip id="veh156" type="veh_passenger" depart="301.97" departLane="best" departSpeed="max" from="408747258" to="571505150"/>
    <trip id="veh157" type="veh_passenger" depart="303.91" departLane="best" from="408747258-AddedOffRampEdge" to="356393276#0"/>
    <trip id="veh158" type="veh_passenger" depart="305.85" departLane="best" departSpeed="max" from="570129387" to="356393276#0"/>
    <trip id="veh160" type="veh_passenger" depart="309.72" departLane="best" from="408747258-AddedOffRampEdge" to="570129388"/>
    <trip id="veh161" type="veh_passenger" depart="311.65" departLane="best" departSpeed="max" from="356854809" to="570129388-AddedOnRampEdge"/>
    <trip id="veh162" type="veh_passenger" depart="313.59" departLane="best" departSpeed="max" from="356854809" to="570129379"/>
    <trip id="veh163" type="veh_passenger" depart="315.52" departLane="best" departSpeed="max" from="408747258" to="570129379"/>
    <trip id="veh164" type="veh_passenger" depart="317.46" departLane="best" departSpeed="max" from="570129391" to="572479039#2"/>
    <trip id="veh165" type="veh_passenger" depart="319.40" departLane="best" departSpeed="max" from="408747258" to="356393276#0"/>
    <trip id="veh166" type="veh_passenger" depart="321.33" departLane="best" departSpeed="max" from="570129391" to="572479039#2"/>
    <trip id="veh167" type="veh_passenger" depart="323.27" departLane="best" departSpeed="max" from="356854809" to="356393276#0"/>
    <trip id="veh168" type="veh_passenger" depart="325.20" departLane="best" departSpeed="max" from="356854809" to="570129394#0"/>
    <trip id="veh170" type="veh_passenger" depart="329.07" departLane="best" departSpeed="max" from="570129391" to="572479039#2"/>
    <trip id="veh171" type="veh_passenger" depart="331.01" departLane="best" departSpeed="max" from="570129391" to="356393276#0"/>
    <trip id="veh172" type="veh_passenger" depart="332.95" departLane="best" departSpeed="max" from="356854809" to="356393276#0"/>
    <trip id="veh174" type="veh_passenger" depart="336.82" departLane="best" departSpeed="max" from="570129391" to="356393276#0"/>
    <trip id="veh175" type="veh_passenger" depart="338.75" departLane="best" departSpeed="max" from="570129391" to="570129388-AddedOnRampEdge"/>
    <trip id="veh176" type="veh_passenger" depart="340.69" departLane="best" departSpeed="max" from="356854809" to="572479039#2"/>
    <trip id="veh177" type="veh_passenger" depart="342.62" departLane="best" departSpeed="max" from="356854809" to="572479049#0"/>
    <trip id="veh178" type="veh_passenger" depart="344.56" departLane="best" departSpeed="max" from="570129387" to="570129379"/>
    <trip id="veh179" type="veh_passenger" depart="346.50" departLane="best" from="571505150" to="572479039#2"/>
    <trip id="veh180" type="veh_passenger" depart="348.43" departLane="best" departSpeed="max" from="356854809" to="572479039#2-AddedOnRampEdge"/>
    <trip id="veh181" type="veh_passenger" depart="350.37" departLane="best" departSpeed="max" from="570129391" to="570129388"/>
    <trip id="veh182" type="veh_passenger" depart="352.30" departLane="best" departSpeed="max" from="408747258" to="572479039#2"/>
    <trip id="veh183" type="veh_passenger" depart="354.24" departLane="best" departSpeed="max" from="570129387" to="570129388"/>
    <trip id="veh184" type="veh_passenger" depart="356.17" departLane="best" departSpeed="max" from="570129387" to="572479039#0"/>
    <trip id="veh185" type="veh_passenger" depart="358.11" departLane="best" departSpeed="max" from="408747258" to="572479039#2"/>
    <trip id="veh186" type="veh_passenger" depart="360.05" departLane="best" from="570129394#0" to="356393276#0"/>
    <trip id="veh187" type="veh_passenger" depart="361.98" departLane="best" departSpeed="max" from="570129387" to="570129388-AddedOnRampEdge"/>
    <trip id="veh188" type="veh_passenger" depart="363.92" departLane="best" from="408747258-AddedOffRampEdge" to="356393276#0"/>
    <trip id="veh189" type="veh_passenger" depart="365.85" departLane="best" departSpeed="max" from="408747258" to="572479039#2"/>
    <trip id="veh190" type="veh_passenger" depart="367.79" departLane="best" departSpeed="max" from="408747258" to="572479039#2"/>
    <trip id="veh191" type="veh_passenger" depart="369.72" departLane="best" departSpeed="max" from="356854809" to="572479039#2-AddedOnRampEdge"/>
    <trip id="veh194" type="veh_passenger" depart="375.53" departLane="best" departSpeed="max" from="570129387" to="570129388"/>
    <trip id="veh195" type="veh_passenger" depart="377.47" departLane="best" departSpeed="max" from="570129387" to="570129379"/>
    <trip id="veh196" type="veh_passenger" depart="379.40" departLane="best" departSpeed="max" from="408747258" to="356393276#0"/>
    <trip id="veh197" type="veh_passenger" depart="381.34" departLane="best" from="356854809-AddedOffRampEdge" to="356393276#0"/>
    <trip id="veh198" type="veh_passenger" depart="383.27" departLane="best" departSpeed="max" from="570129387" to="572479039#0"/>
    <trip id="veh199" type="veh_passenger" depart="385.21" departLane="best" from="572479049#0" to="570129388"/>
    <trip id="veh200" type="veh_passenger" depart="387.15" departLane="best" departSpeed="max" from="408747258" to="356393276#0"/>
    <trip id="veh201" type="veh_passenger" depart="389.08" departLane="best" from="356854809-AddedOffRampEdge" to="356393276#0"/>
    <trip id="veh202" type="veh_passenger" depart="391.02" departLane="best" departSpeed="max" from="570129387" to="570129379"/>
    <trip id="veh203" type="veh_passenger" depart="392.95" departLane="best" from="572479049#0" to="570129388"/>
    <trip id="veh204" type="veh_passenger" depart="394.89" departLane="best" departSpeed="max" from="570129391" to="356393276#0"/>
    <trip id="veh207" type="veh_passenger" depart="400.70" departLane="best" departSpeed="max" from="570129387" to="570129388"/>
    <trip id="veh208" type="veh_passenger" depart="402.63" departLane="best" from="356854809-AddedOffRampEdge" to="356393276#0"/>
    <trip id="veh210" type="veh_passenger" depart="406.50" departLane="best" departSpeed="max" from="356854809" to="570129388-AddedOnRampEdge"/>
    <trip id="veh211" type="veh_passenger" depart="408.44" departLane="best" departSpeed="max" from="356854809" to="356393276#0"/>
    <trip id="veh212" type="veh_passenger" depart="410.37" departLane="best" departSpeed="max" from="570129387" to="570129379"/>
    <trip id="veh214" type="veh_passenger" depart="414.25" departLane="best" departSpeed="max" from="570129391" to="570129388-AddedOnRampEdge"/>
    <trip id="veh215" type="veh_passenger" depart="416.18" departLane="best" departSpeed="max" from="570129387" to="570129388"/>
    <trip id="veh216" type="veh_passenger" depart="418.12" departLane="best" departSpeed="max" from="570129391" to="356393276#0"/>
    <trip id="veh217" type="veh_passenger" depart="420.05" departLane="best" from="356854809-AddedOffRampEdge" to="356393276#0"/>
    <trip id="veh218" type="veh_passenger" depart="421.99" departLane="best" departSpeed="max" from="570129387" to="570129379"/>
    <trip id="veh219" type="veh_passenger" depart="423.92" departLane="best" departSpeed="max" from="408747258" to="571505150"/>
    <trip id="veh220" type="veh_passenger" depart="425.86" departLane="best" departSpeed="max" from="570129391" to="570129388"/>
    <trip id="veh221" type="veh_passenger" depart="427.80" departLane="best" departSpeed="max" from="570129391" to="570129388-AddedOnRampEdge"/>
    <trip id="veh222" type="veh_passenger" depart="429.73" departLane="best" from="408747258-AddedOffRampEdge" to="570129388"/>
    <trip id="veh223" type="veh_passenger" depart="431.67" departLane="best" departSpeed="max" from="570129391" to="572479039#2"/>
    <trip id="veh224" type="veh_passenger" depart="433.60" departLane="best" from="570129394#0" to="356393276#0"/>
    <trip id="veh225" type="veh_passenger" depart="435.54" departLane="best" departSpeed="max" from="356854809" to="570129379"/>
    <trip id="veh226" type="veh_passenger" depart="437.47" departLane="best" departSpeed="max" from="570129391" to="570129388"/>
    <trip id="veh227" type="veh_passenger" depart="439.41" departLane="best" departSpeed="max" from="408747258" to="356393276#0"/>
    <trip id="veh229" type="veh_passenger" depart="443.28" departLane="best" departSpeed="max" from="570129387" to="356393276#0"/>
    <trip id="veh230" type="veh_passenger" depart="445.22" departLane="best" departSpeed="max" from="356854809" to="570129379"/>
    <trip id="veh231" type="veh_passenger" depart="447.15" departLane="best" departSpeed="max" from="408747258" to="408747258-AddedOffRampEdge"/>
    <trip id="veh232" type="veh_passenger" depart="449.09" departLane="best" departSpeed="max" from="356854809" to="572479039#2-AddedOnRampEdge"/>
    <trip id="veh233" type="veh_passenger" depart="451.02" departLane="best" departSpeed="max" from="356854809" to="572479039#2"/>
    <trip id="veh235" type="veh_passenger" depart="454.90" departLane="best" departSpeed="max" from="570129387" to="570129388-AddedOnRampEdge"/>
    <trip id="veh236" type="veh_passenger" depart="456.83" departLane="best" departSpeed="max" from="570129387" to="356393276#0"/>
    <trip id="veh237" type="veh_passenger" depart="458.77" departLane="best" departSpeed="max" from="408747258" to="570129379"/>
    <trip id="veh238" type="veh_passenger" depart="460.70" departLane="best" departSpeed="max" from="570129391" to="572479039#2"/>
    <trip id="veh239" type="veh_passenger" depart="462.64" departLane="best" departSpeed="max" from="408747258" to="571505150"/>
    <trip id="veh240" type="veh_passenger" depart="464.58" departLane="best" departSpeed="max" from="408747258" to="572479039#2-AddedOnRampEdge"/>
    <trip id="veh241" type="veh_passenger" depart="466.51" departLane="best" departSpeed="max" from="570129387" to="570129379"/>
    <trip id="veh243" type="veh_passenger" depart="470.38" departLane="best" from="408747258-AddedOffRampEdge" to="570129388"/>
    <trip id="veh244" type="veh_passenger" depart="472.32" departLane="best" departSpeed="max" from="570129387" to="570129379"/>
    <trip id="veh245" type="veh_passenger" depart="474.25" departLane="best" departSpeed="max" from="570129391" to="570129388-AddedOnRampEdge"/>
    <trip id="veh246" type="veh_passenger" depart="476.19" departLane="best" departSpeed="max" from="570129387" to="572479039#2-AddedOnRampEdge"/>
    <trip id="veh248" type="veh_passenger" depart="480.06" departLane="best" departSpeed="max" from="356854809" to="572479049#0"/>
    <trip id="veh249" type="veh_passenger" depart="482.00" departLane="best" departSpeed="max" from="570129387" to="356393276#0"/>
    <trip id="veh250" type="veh_passenger" depart="483.93" departLane="best" departSpeed="max" from="570129387" to="356393276#0"/>