<?xml version="1.0" encoding="UTF-8"?>

<!-- generated on 2024-05-31 15:49:16 by Eclipse SUMO netedit Version 1.19.0
<configuration xmlns:xsi="http://www.w3.org/2001/XMLSchema-instance" xsi:noNamespaceSchemaLocation="http://sumo.dlr.de/xsd/neteditConfiguration.xsd">

    <input>
        <sumocfg-file value="osm2.sumocfg"/>
        <additional-files value="osm.poly.add.xml"/>
        <route-files value="routes.rou.xml"/>
        <sumo-net-file value="osm.net.xml"/>
    </input>

    <output>
        <output-file value="osm.net.xml"/>
        <output.street-names value="true"/>
    </output>

    <processing>
        <geometry.min-radius.fix.railways value="false"/>
        <geometry.max-grade.fix value="false"/>
        <offset.disable-normalization value="true"/>
        <lefthand value="0"/>
    </processing>

    <junctions>
        <no-turnarounds value="true"/>
        <junctions.corner-detail value="5"/>
        <junctions.limit-turn-speed value="5.50"/>
        <rectangular-lane-cut value="0"/>
    </junctions>

    <pedestrian>
        <walkingareas value="0"/>
    </pedestrian>

    <netedit>
        <ignore.routeelements value="false"/>
    </netedit>

</configuration>
-->

<net version="1.16" junctionCornerDetail="5" limitTurnSpeed="5.50" xmlns:xsi="http://www.w3.org/2001/XMLSchema-instance" xsi:noNamespaceSchemaLocation="http://sumo.dlr.de/xsd/net_file.xsd">

    <location netOffset="8520686.43,-377303.33" convBoundary="0.00,0.00,1013.42,1187.98" origBoundary="-76.542629,3.387398,-76.532869,3.398051" projParameter="+proj=merc +a=6378137 +b=6378137 +lat_ts=0.0 +lon_0=0.0 +x_0=0.0 +y_0=0 +k=1.0 +units=m +nadgrids=@null +wktext +no_defs"/>

    <type id="highway.secondary" priority="11" numLanes="1" speed="27.78" disallow="tram rail_urban rail rail_electric rail_fast ship" oneway="0"/>
    <type id="highway.secondary_link" priority="6" numLanes="1" speed="22.22" disallow="tram rail_urban rail rail_electric rail_fast ship" oneway="0"/>
    <type id="highway.tertiary" priority="10" numLanes="1" speed="22.22" disallow="tram rail_urban rail rail_electric rail_fast ship" oneway="0"/>

    <edge id=":356854809-AddedOffRampNode_0" function="internal">
        <lane id=":356854809-AddedOffRampNode_0_0" index="0" disallow="tram rail_urban rail rail_electric rail_fast ship" speed="8.33" length="8.20" shape="630.26,678.08 627.85,678.75 626.40,679.95 624.95,681.16 622.54,681.85"/>
        <lane id=":356854809-AddedOffRampNode_0_1" index="1" disallow="tram rail_urban rail rail_electric rail_fast ship" speed="8.33" length="8.20" shape="630.26,678.08 622.30,678.65"/>
        <lane id=":356854809-AddedOffRampNode_0_2" index="2" disallow="tram rail_urban rail rail_electric rail_fast ship" speed="8.33" length="8.20" shape="630.04,674.89 622.06,675.46"/>
        <lane id=":356854809-AddedOffRampNode_0_3" index="3" disallow="tram rail_urban rail rail_electric rail_fast ship" speed="8.33" length="8.20" shape="629.83,671.69 621.82,672.27"/>
    </edge>
    <edge id=":3622576381_0" function="internal">
        <lane id=":3622576381_0_0" index="0" disallow="tram rail_urban rail rail_electric rail_fast ship" speed="15.27" length="2.70" shape="529.35,688.92 528.57,689.05 528.05,689.25 527.54,689.46 526.76,689.63"/>
    </edge>
    <edge id=":3622576381_1" function="internal">
        <lane id=":3622576381_1_0" index="0" disallow="tram rail_urban rail rail_electric rail_fast ship" speed="8.33" length="3.01" shape="529.11,685.73 526.28,685.94"/>
        <lane id=":3622576381_1_1" index="1" disallow="tram rail_urban rail rail_electric rail_fast ship" speed="8.33" length="3.01" shape="528.88,682.54 525.87,682.77"/>
        <lane id=":3622576381_1_2" index="2" disallow="tram rail_urban rail rail_electric rail_fast ship" speed="8.33" length="3.01" shape="528.64,679.35 525.47,679.59"/>
    </edge>
    <edge id=":3622576454_0" function="internal">
        <lane id=":3622576454_0_0" index="0" disallow="tram rail_urban rail rail_electric rail_fast ship" speed="18.05" length="3.11" shape="504.54,715.28 504.65,718.39"/>
    </edge>
    <edge id=":3622576454_1" function="internal">
        <lane id=":3622576454_1_0" index="0" disallow="tram rail_urban rail rail_electric rail_fast ship" speed="13.89" length="3.06" shape="501.24,715.56 501.46,718.62"/>
        <lane id=":3622576454_1_1" index="1" disallow="tram rail_urban rail rail_electric rail_fast ship" speed="13.89" length="3.06" shape="498.05,715.78 498.26,718.84"/>
        <lane id=":3622576454_1_2" index="2" disallow="tram rail_urban rail rail_electric rail_fast ship" speed="13.89" length="3.06" shape="494.85,716.00 495.07,719.06"/>
    </edge>
    <edge id=":570129388-AddedOnRampNode_0" function="internal">
        <lane id=":570129388-AddedOnRampNode_0_0" index="0" disallow="tram rail_urban rail rail_electric rail_fast ship" speed="8.33" length="8.00" shape="626.64,656.02 634.62,655.37"/>
        <lane id=":570129388-AddedOnRampNode_0_1" index="1" disallow="tram rail_urban rail rail_electric rail_fast ship" speed="8.33" length="8.00" shape="626.90,659.21 634.88,658.56"/>
        <lane id=":570129388-AddedOnRampNode_0_2" index="2" disallow="tram rail_urban rail rail_electric rail_fast ship" speed="8.33" length="8.00" shape="627.16,662.40 635.13,661.75"/>
    </edge>
    <edge id=":572479039#2-AddedOnRampNode_0" function="internal">
        <lane id=":572479039#2-AddedOnRampNode_0_0" index="0" disallow="tram rail_urban rail rail_electric rail_fast ship" speed="13.89" length="7.96" shape="508.02,812.84 508.71,820.65"/>
        <lane id=":572479039#2-AddedOnRampNode_0_1" index="1" disallow="tram rail_urban rail rail_electric rail_fast ship" speed="13.89" length="7.96" shape="504.83,813.07 505.53,820.99"/>
        <lane id=":572479039#2-AddedOnRampNode_0_2" index="2" disallow="tram rail_urban rail rail_electric rail_fast ship" speed="13.89" length="7.96" shape="501.64,813.29 502.35,821.33"/>
    </edge>
    <edge id=":J1_0" function="internal">
        <lane id=":J1_0_0" index="0" disallow="tram rail_urban rail rail_electric rail_fast ship" speed="15.27" length="25.24" shape="524.26,658.09 528.38,659.16 533.85,659.66 540.79,659.63 549.32,659.11"/>
    </edge>
    <edge id=":J1_1" function="internal">
        <lane id=":J1_1_0" index="0" disallow="tram rail_urban rail rail_electric rail_fast ship" speed="8.33" length="26.07" shape="523.65,661.72 549.58,662.30"/>
        <lane id=":J1_1_1" index="1" disallow="tram rail_urban rail rail_electric rail_fast ship" speed="8.33" length="26.07" shape="523.78,664.92 549.84,665.48"/>
        <lane id=":J1_1_2" index="2" disallow="tram rail_urban rail rail_electric rail_fast ship" speed="8.33" length="26.07" shape="523.91,668.11 550.10,668.67"/>
    </edge>
    <edge id=":J2_0" function="internal">
        <lane id=":J2_0_0" index="0" disallow="tram rail_urban rail rail_electric rail_fast ship" speed="13.89" length="0.30" shape="495.08,629.55 495.10,629.82"/>
        <lane id=":J2_0_1" index="1" disallow="tram rail_urban rail rail_electric rail_fast ship" speed="13.89" length="0.30" shape="491.89,629.82 491.91,630.12"/>
        <lane id=":J2_0_2" index="2" disallow="tram rail_urban rail rail_electric rail_fast ship" speed="13.89" length="0.30" shape="488.70,630.09 488.73,630.41"/>
    </edge>
    <edge id=":cluster_2164402551_2164402561_2164664296_2164664304_#8more_0" function="internal">
        <lane id=":cluster_2164402551_2164402561_2164664296_2164664304_#8more_0_0" index="0" disallow="tram rail_urban rail rail_electric rail_fast ship" speed="8.33" length="29.18" shape="470.71,695.52 468.80,692.37 463.66,690.43 455.29,689.68 443.70,690.14"/>
    </edge>
    <edge id=":cluster_2164402551_2164402561_2164664296_2164664304_#8more_1" function="internal">
        <lane id=":cluster_2164402551_2164402561_2164664296_2164664304_#8more_1_0" index="0" disallow="tram rail_urban rail rail_electric rail_fast ship" speed="11.11" length="56.66" shape="470.71,695.52 467.60,638.94"/>
        <lane id=":cluster_2164402551_2164402561_2164664296_2164664304_#8more_1_1" index="1" disallow="tram rail_urban rail rail_electric rail_fast ship" speed="11.11" length="56.66" shape="473.91,695.31 470.79,638.73"/>
        <lane id=":cluster_2164402551_2164402561_2164664296_2164664304_#8more_1_2" index="2" disallow="tram rail_urban rail rail_electric rail_fast ship" speed="11.11" length="56.66" shape="477.10,695.09 473.98,638.52"/>
    </edge>
    <edge id=":cluster_2164402551_2164402561_2164664296_2164664304_#8more_4" function="internal">
        <lane id=":cluster_2164402551_2164402561_2164664296_2164664304_#8more_4_0" index="0" disallow="tram rail_urban rail rail_electric rail_fast ship" speed="8.33" length="25.08" shape="477.10,695.09 479.91,686.70 487.46,676.87 490.35,674.35"/>
        <lane id=":cluster_2164402551_2164402561_2164664296_2164664304_#8more_4_1" index="1" disallow="tram rail_urban rail rail_electric rail_fast ship" speed="8.33" length="28.17" shape="477.10,695.09 478.04,683.46 483.01,675.14 488.97,671.84"/>
    </edge>
    <edge id=":cluster_2164402551_2164402561_2164664296_2164664304_#8more_6" function="internal">
        <lane id=":cluster_2164402551_2164402561_2164664296_2164664304_#8more_6_0" index="0" disallow="tram rail_urban rail rail_electric rail_fast ship" speed="7.06" length="20.35" shape="477.10,695.09 480.75,688.74 484.67,686.44 488.86,688.20 491.25,691.32"/>
    </edge>
    <edge id=":cluster_2164402551_2164402561_2164664296_2164664304_#8more_29" function="internal">
        <lane id=":cluster_2164402551_2164402561_2164664296_2164664304_#8more_29_0" index="0" disallow="tram rail_urban rail rail_electric rail_fast ship" speed="8.33" length="17.48" shape="490.35,674.35 496.81,668.70 505.03,665.28"/>
    </edge>
    <edge id=":cluster_2164402551_2164402561_2164664296_2164664304_#8more_30" function="internal">
        <lane id=":cluster_2164402551_2164402561_2164664296_2164664304_#8more_30_0" index="0" disallow="tram rail_urban rail rail_electric rail_fast ship" speed="8.33" length="16.60" shape="488.97,671.84 492.01,670.15 505.03,668.48"/>
    </edge>
    <edge id=":cluster_2164402551_2164402561_2164664296_2164664304_#8more_31" function="internal">
        <lane id=":cluster_2164402551_2164402561_2164664296_2164664304_#8more_31_0" index="0" disallow="tram rail_urban rail rail_electric rail_fast ship" speed="7.06" length="3.39" shape="491.25,691.32 493.32,694.01"/>
    </edge>
    <edge id=":cluster_2164402551_2164402561_2164664296_2164664304_#8more_7" function="internal">
        <lane id=":cluster_2164402551_2164402561_2164664296_2164664304_#8more_7_0" index="0" disallow="tram rail_urban rail rail_electric rail_fast ship" speed="8.33" length="61.62" shape="505.02,687.58 443.70,690.14"/>
        <lane id=":cluster_2164402551_2164402561_2164664296_2164664304_#8more_7_1" index="1" disallow="tram rail_urban rail rail_electric rail_fast ship" speed="8.33" length="61.62" shape="505.02,684.37 443.44,686.96"/>
        <lane id=":cluster_2164402551_2164402561_2164664296_2164664304_#8more_7_2" index="2" disallow="tram rail_urban rail rail_electric rail_fast ship" speed="8.33" length="61.62" shape="505.02,681.16 443.44,686.96"/>
    </edge>
    <edge id=":cluster_2164402551_2164402561_2164664296_2164664304_#8more_10" function="internal">
        <lane id=":cluster_2164402551_2164402561_2164664296_2164664304_#8more_10_0" index="0" disallow="tram rail_urban rail rail_electric rail_fast ship" speed="11.11" length="15.93" shape="505.02,681.16 496.52,676.02 492.51,671.57"/>
        <lane id=":cluster_2164402551_2164402561_2164664296_2164664304_#8more_10_1" index="1" disallow="tram rail_urban rail rail_electric rail_fast ship" speed="11.11" length="23.67" shape="505.02,681.16 497.25,675.98 488.23,664.84"/>
    </edge>
    <edge id=":cluster_2164402551_2164402561_2164664296_2164664304_#8more_12" function="internal">
        <lane id=":cluster_2164402551_2164402561_2164664296_2164664304_#8more_12_0" index="0" disallow="tram rail_urban rail rail_electric rail_fast ship" speed="6.38" length="15.03" shape="505.02,681.16 500.27,677.99 498.69,674.82 500.27,671.65 502.13,670.42"/>
    </edge>
    <edge id=":cluster_2164402551_2164402561_2164664296_2164664304_#8more_32" function="internal">
        <lane id=":cluster_2164402551_2164402561_2164664296_2164664304_#8more_32_0" index="0" disallow="tram rail_urban rail rail_electric rail_fast ship" speed="11.11" length="39.67" shape="492.51,671.57 485.24,663.49 475.30,649.18 470.79,638.73"/>
    </edge>
    <edge id=":cluster_2164402551_2164402561_2164664296_2164664304_#8more_33" function="internal">
        <lane id=":cluster_2164402551_2164402561_2164664296_2164664304_#8more_33_0" index="0" disallow="tram rail_urban rail rail_electric rail_fast ship" speed="11.11" length="30.08" shape="488.23,664.84 487.05,663.37 478.07,649.01 473.98,638.52"/>
    </edge>
    <edge id=":cluster_2164402551_2164402561_2164664296_2164664304_#8more_34" function="internal">
        <lane id=":cluster_2164402551_2164402561_2164664296_2164664304_#8more_34_0" index="0" disallow="tram rail_urban rail rail_electric rail_fast ship" speed="6.38" length="3.48" shape="502.13,670.42 505.03,668.48"/>
    </edge>
    <edge id=":cluster_2164402551_2164402561_2164664296_2164664304_#8more_13" function="internal">
        <lane id=":cluster_2164402551_2164402561_2164664296_2164664304_#8more_13_0" index="0" disallow="tram rail_urban rail rail_electric rail_fast ship" speed="13.89" length="56.60" shape="495.78,637.12 499.71,693.58"/>
        <lane id=":cluster_2164402551_2164402561_2164664296_2164664304_#8more_13_1" index="1" disallow="tram rail_urban rail rail_electric rail_fast ship" speed="13.89" length="56.60" shape="492.58,637.33 496.51,693.79"/>
        <lane id=":cluster_2164402551_2164402561_2164664296_2164664304_#8more_13_2" index="2" disallow="tram rail_urban rail rail_electric rail_fast ship" speed="13.89" length="56.60" shape="489.39,637.53 493.32,694.01"/>
    </edge>
    <edge id=":cluster_2164402551_2164402561_2164664296_2164664304_#8more_16" function="internal">
        <lane id=":cluster_2164402551_2164402561_2164664296_2164664304_#8more_16_0" index="0" disallow="tram rail_urban rail rail_electric rail_fast ship" speed="11.11" length="24.71" shape="489.39,637.53 483.84,649.39 476.69,658.55"/>
        <lane id=":cluster_2164402551_2164402561_2164664296_2164664304_#8more_16_1" index="1" disallow="tram rail_urban rail rail_electric rail_fast ship" speed="11.11" length="38.71" shape="489.39,637.53 488.10,657.64 480.01,672.58 478.70,673.45"/>
    </edge>
    <edge id=":cluster_2164402551_2164402561_2164664296_2164664304_#8more_18" function="internal">
        <lane id=":cluster_2164402551_2164402561_2164664296_2164664304_#8more_18_0" index="0" disallow="tram rail_urban rail rail_electric rail_fast ship" speed="6.92" length="19.17" shape="489.39,637.53 485.91,643.56 482.18,645.73 478.21,644.05 476.03,641.21"/>
    </edge>
    <edge id=":cluster_2164402551_2164402561_2164664296_2164664304_#8more_35" function="internal">
        <lane id=":cluster_2164402551_2164402561_2164664296_2164664304_#8more_35_0" index="0" disallow="tram rail_urban rail rail_electric rail_fast ship" speed="11.11" length="46.01" shape="476.69,658.55 470.18,666.89 454.69,682.87 443.70,690.14"/>
    </edge>
    <edge id=":cluster_2164402551_2164402561_2164664296_2164664304_#8more_36" function="internal">
        <lane id=":cluster_2164402551_2164402561_2164664296_2164664304_#8more_36_0" index="0" disallow="tram rail_urban rail rail_electric rail_fast ship" speed="11.11" length="38.40" shape="478.70,673.45 465.13,682.35 443.44,686.96"/>
    </edge>
    <edge id=":cluster_2164402551_2164402561_2164664296_2164664304_#8more_37" function="internal">
        <lane id=":cluster_2164402551_2164402561_2164664296_2164664304_#8more_37_0" index="0" disallow="tram rail_urban rail rail_electric rail_fast ship" speed="6.92" length="3.38" shape="476.03,641.21 473.98,638.52"/>
    </edge>
    <edge id=":cluster_2164402551_2164402561_2164664296_2164664304_#8more_19" function="internal">
        <lane id=":cluster_2164402551_2164402561_2164664296_2164664304_#8more_19_0" index="0" disallow="tram rail_urban rail rail_electric rail_fast ship" speed="11.11" length="42.23" shape="441.73,665.64 453.64,663.16 461.92,657.88 466.57,649.81 467.60,638.94"/>
    </edge>
    <edge id=":cluster_2164402551_2164402561_2164664296_2164664304_#8more_20" function="internal">
        <lane id=":cluster_2164402551_2164402561_2164664296_2164664304_#8more_20_0" index="0" disallow="tram rail_urban rail rail_electric rail_fast ship" speed="8.33" length="63.40" shape="441.73,665.64 505.03,662.08"/>
    </edge>
    <edge id=":cluster_2164402551_2164402561_2164664296_2164664304_#8more_21" function="internal">
        <lane id=":cluster_2164402551_2164402561_2164664296_2164664304_#8more_21_0" index="0" disallow="tram rail_urban rail rail_electric rail_fast ship" speed="11.11" length="4.72" shape="441.98,668.83 446.60,667.86"/>
    </edge>
    <edge id=":cluster_2164402551_2164402561_2164664296_2164664304_#8more_22" function="internal">
        <lane id=":cluster_2164402551_2164402561_2164664296_2164664304_#8more_22_0" index="0" disallow="tram rail_urban rail rail_electric rail_fast ship" speed="8.33" length="63.14" shape="441.98,668.83 505.03,665.28"/>
    </edge>
    <edge id=":cluster_2164402551_2164402561_2164664296_2164664304_#8more_23" function="internal">
        <lane id=":cluster_2164402551_2164402561_2164664296_2164664304_#8more_23_0" index="0" disallow="tram rail_urban rail rail_electric rail_fast ship" speed="11.11" length="39.50" shape="441.98,668.83 454.18,671.53 472.40,678.62 479.05,682.00"/>
    </edge>
    <edge id=":cluster_2164402551_2164402561_2164664296_2164664304_#8more_24" function="internal">
        <lane id=":cluster_2164402551_2164402561_2164664296_2164664304_#8more_24_0" index="0" disallow="tram rail_urban rail rail_electric rail_fast ship" speed="8.33" length="62.89" shape="442.24,672.02 505.03,668.48"/>
    </edge>
    <edge id=":cluster_2164402551_2164402561_2164664296_2164664304_#8more_25" function="internal">
        <lane id=":cluster_2164402551_2164402561_2164664296_2164664304_#8more_25_0" index="0" disallow="tram rail_urban rail rail_electric rail_fast ship" speed="11.11" length="37.39" shape="442.24,672.02 454.90,674.30 474.15,680.42 478.15,682.08"/>
        <lane id=":cluster_2164402551_2164402561_2164664296_2164664304_#8more_25_1" index="1" disallow="tram rail_urban rail rail_electric rail_fast ship" speed="11.11" length="48.25" shape="442.24,672.02 465.31,671.83 482.04,675.39 488.64,680.04"/>
        <lane id=":cluster_2164402551_2164402561_2164664296_2164664304_#8more_25_2" index="2" disallow="tram rail_urban rail rail_electric rail_fast ship" speed="11.11" length="45.67" shape="442.24,672.02 463.91,671.94 479.65,675.57 485.92,680.28"/>
    </edge>
    <edge id=":cluster_2164402551_2164402561_2164664296_2164664304_#8more_28" function="internal">
        <lane id=":cluster_2164402551_2164402561_2164664296_2164664304_#8more_28_0" index="0" disallow="tram rail_urban rail rail_electric rail_fast ship" speed="6.80" length="18.47" shape="442.24,672.02 448.14,675.31 450.31,678.89 448.74,682.77 446.12,684.84"/>
    </edge>
    <edge id=":cluster_2164402551_2164402561_2164664296_2164664304_#8more_38" function="internal">
        <lane id=":cluster_2164402551_2164402561_2164664296_2164664304_#8more_38_0" index="0" disallow="tram rail_urban rail rail_electric rail_fast ship" speed="11.11" length="42.61" shape="446.60,667.86 455.25,666.05 464.48,660.10 469.66,650.99 470.79,638.73"/>
    </edge>
    <edge id=":cluster_2164402551_2164402561_2164664296_2164664304_#8more_39" function="internal">
        <lane id=":cluster_2164402551_2164402561_2164664296_2164664304_#8more_39_0" index="0" disallow="tram rail_urban rail rail_electric rail_fast ship" speed="11.11" length="21.26" shape="479.05,682.00 489.05,687.06 496.51,693.79"/>
    </edge>
    <edge id=":cluster_2164402551_2164402561_2164664296_2164664304_#8more_40" function="internal">
        <lane id=":cluster_2164402551_2164402561_2164664296_2164664304_#8more_40_0" index="0" disallow="tram rail_urban rail rail_electric rail_fast ship" speed="11.11" length="24.61" shape="478.15,682.08 491.81,687.73 499.71,693.58"/>
    </edge>
    <edge id=":cluster_2164402551_2164402561_2164664296_2164664304_#8more_41" function="internal">
        <lane id=":cluster_2164402551_2164402561_2164664296_2164664304_#8more_41_0" index="0" disallow="tram rail_urban rail rail_electric rail_fast ship" speed="11.11" length="16.45" shape="488.64,680.04 492.44,682.71 496.51,693.79"/>
    </edge>
    <edge id=":cluster_2164402551_2164402561_2164664296_2164664304_#8more_42" function="internal">
        <lane id=":cluster_2164402551_2164402561_2164664296_2164664304_#8more_42_0" index="0" disallow="tram rail_urban rail rail_electric rail_fast ship" speed="11.11" length="16.14" shape="485.92,680.28 489.45,682.93 493.32,694.01"/>
    </edge>
    <edge id=":cluster_2164402551_2164402561_2164664296_2164664304_#8more_43" function="internal">
        <lane id=":cluster_2164402551_2164402561_2164664296_2164664304_#8more_43_0" index="0" disallow="tram rail_urban rail rail_electric rail_fast ship" speed="6.80" length="3.41" shape="446.12,684.84 443.44,686.96"/>
    </edge>

    <edge id="E0" from="5481745912" to="356854809-AddedOffRampNode" name="Carrera 70" priority="10" type="highway.tertiary" spreadType="center">
        <lane id="E0_0" index="0" disallow="tram rail_urban rail rail_electric rail_fast ship" speed="8.33" length="384.27" shape="1013.64,651.84 630.26,678.08">
            <param key="origId" value="356854809"/>
        </lane>
        <lane id="E0_1" index="1" disallow="tram rail_urban rail rail_electric rail_fast ship" speed="8.33" length="384.27" shape="1013.42,648.65 630.04,674.89">
            <param key="origId" value="356854809"/>
        </lane>
        <lane id="E0_2" index="2" disallow="tram rail_urban rail rail_electric rail_fast ship" speed="8.33" length="384.27" shape="1013.20,645.46 629.83,671.69">
            <param key="origId" value="356854809"/>
        </lane>
    </edge>
    <edge id="E1" from="356854809-AddedOffRampNode" to="3622576381" name="Carrera 70" priority="10" type="highway.tertiary" spreadType="center" shape="626.17,676.76 614.98,677.60 593.80,679.36 526.46,684.32">
        <lane id="E1_0" index="0" disallow="tram rail_urban rail rail_electric rail_fast ship" speed="8.33" length="93.45" shape="622.54,681.85 615.36,682.39 594.18,684.15 529.35,688.92">
            <param key="origId" value="356854809"/>
        </lane>
        <lane id="E1_1" index="1" disallow="tram rail_urban rail rail_electric rail_fast ship" speed="8.33" length="93.45" shape="622.30,678.65 615.11,679.20 593.93,680.96 529.11,685.73">
            <param key="origId" value="356854809"/>
        </lane>
        <lane id="E1_2" index="2" disallow="tram rail_urban rail rail_electric rail_fast ship" speed="8.33" length="93.45" shape="622.06,675.46 614.85,676.00 593.67,677.76 528.88,682.54">
            <param key="origId" value="356854809"/>
        </lane>
        <lane id="E1_3" index="3" disallow="tram rail_urban rail rail_electric rail_fast ship" speed="8.33" length="93.45" shape="621.82,672.27 614.60,672.81 593.42,674.57 528.64,679.35">
            <param key="origId" value="356854809"/>
        </lane>
    </edge>
    <edge id="E2" from="3622576381" to="cluster_2164402551_2164402561_2164664296_2164664304_#8more" name="Carrera 70" priority="10" type="highway.tertiary" spreadType="center" shape="526.34,682.73 501.87,684.61 495.92,685.03">
        <lane id="E2_0" index="0" disallow="tram rail_urban rail rail_electric rail_fast ship" speed="8.33" length="20.92" shape="526.28,685.94 505.02,687.58">
            <param key="origId" value="570129394"/>
        </lane>
        <lane id="E2_1" index="1" disallow="tram rail_urban rail rail_electric rail_fast ship" speed="8.33" length="20.92" shape="525.87,682.77 505.02,684.37">
            <param key="origId" value="570129394"/>
        </lane>
        <lane id="E2_2" index="2" disallow="tram rail_urban rail rail_electric rail_fast ship" speed="8.33" length="20.92" shape="525.47,679.59 505.02,681.16">
            <param key="origId" value="570129394"/>
        </lane>
        <param key="origTo" value="2164402551"/>
    </edge>
    <edge id="EA0" from="cluster_2164402551_2164402561_2164664296_2164664304_#8more" to="5952748235" name="Carrera 70" priority="10" type="highway.tertiary" spreadType="center" shape="443.57,688.55 360.45,695.24 308.33,698.77 303.60,699.10 225.57,704.39 71.02,716.84 0.00,724.87">
        <lane id="EA0_0" index="0" disallow="tram rail_urban rail rail_electric rail_fast ship" speed="8.33" length="445.10" shape="443.70,690.14 360.57,696.84 308.44,700.37 303.71,700.70 225.69,705.99 71.17,718.43 0.18,726.46">
            <param key="origId" value="356393276"/>
        </lane>
        <lane id="EA0_1" index="1" disallow="tram rail_urban rail rail_electric rail_fast ship" speed="8.33" length="445.10" shape="443.44,686.96 360.33,693.64 308.22,697.17 303.49,697.50 225.45,702.79 70.87,715.25 -0.18,723.28">
            <param key="origId" value="356393276"/>
        </lane>
        <param key="origFrom" value="3622576353"/>
    </edge>
    <edge id="N0" from="2680622887" to="cluster_2164402551_2164402561_2164664296_2164664304_#8more" name="Calle 13" priority="11" type="highway.secondary" spreadType="center" shape="513.65,1187.98 512.46,1180.71 507.84,1149.89 506.16,1126.24 501.51,1060.71 493.35,945.09 483.73,820.20 477.94,745.05 476.64,729.33 475.85,719.50">
        <lane id="N0_0" index="0" disallow="tram rail_urban rail rail_electric rail_fast ship" speed="8.33" length="494.38" shape="510.49,1188.50 509.30,1181.21 504.66,1150.24 502.97,1126.47 498.32,1060.94 490.16,945.33 480.54,820.45 474.75,745.30 473.45,729.59 470.71,695.52">
            <param key="origId" value="570129387"/>
        </lane>
        <lane id="N0_1" index="1" disallow="tram rail_urban rail rail_electric rail_fast ship" speed="8.33" length="494.38" shape="513.65,1187.98 512.46,1180.71 507.84,1149.89 506.16,1126.24 501.51,1060.71 493.35,945.09 483.73,820.20 477.94,745.05 476.64,729.33 473.91,695.31">
            <param key="origId" value="570129387"/>
        </lane>
        <lane id="N0_2" index="2" disallow="tram rail_urban rail rail_electric rail_fast ship" speed="8.33" length="494.38" shape="516.81,1187.46 515.62,1180.21 511.02,1149.54 509.35,1126.01 504.70,1060.48 496.54,944.85 486.92,819.95 481.13,744.80 479.83,729.07 477.10,695.09">
            <param key="origId" value="570129387"/>
        </lane>
        <param key="origTo" value="3622576413"/>
    </edge>
    <edge id="NA0" from="cluster_2164402551_2164402561_2164664296_2164664304_#8more" to="2172154306" name="Calle 13" priority="11" type="highway.secondary" spreadType="center" shape="470.79,638.73 429.90,2.29">
        <lane id="NA0_0" index="0" disallow="tram rail_urban rail rail_electric rail_fast ship" speed="13.89" length="637.75" shape="467.60,638.94 426.71,2.50">
            <param key="origId" value="570129379"/>
        </lane>
        <lane id="NA0_1" index="1" disallow="tram rail_urban rail rail_electric rail_fast ship" speed="13.89" length="637.75" shape="470.79,638.73 429.90,2.29">
            <param key="origId" value="570129379"/>
        </lane>
        <lane id="NA0_2" index="2" disallow="tram rail_urban rail rail_electric rail_fast ship" speed="13.89" length="637.75" shape="473.98,638.52 433.09,2.08">
            <param key="origId" value="570129379"/>
        </lane>
        <param key="origFrom" value="3622576419"/>
    </edge>
    <edge id="S0" from="4640174026" to="J4" name="Calle 13" priority="11" type="highway.secondary" spreadType="center">
        <lane id="S0_0" index="0" disallow="tram rail_urban rail rail_electric rail_fast ship" speed="13.89" length="608.96" shape="460.56,-0.17 493.09,607.92">
            <param key="origId" value="408747258"/>
        </lane>
        <lane id="S0_1" index="1" disallow="tram rail_urban rail rail_electric rail_fast ship" speed="13.89" length="608.96" shape="457.36,0.00 489.89,608.09">
            <param key="origId" value="408747258"/>
        </lane>
        <lane id="S0_2" index="2" disallow="tram rail_urban rail rail_electric rail_fast ship" speed="13.89" length="608.96" shape="454.16,0.17 486.70,608.26">
            <param key="origId" value="408747258"/>
        </lane>
    </edge>
    <edge id="S1" from="J4" to="J2" name="Calle 13" priority="11" type="highway.secondary" spreadType="center">
        <lane id="S1_0" index="0" disallow="tram rail_urban rail rail_electric rail_fast ship" speed="13.89" length="2.57" shape="494.86,626.99 495.08,629.55">
            <param key="origId" value="408747258"/>
        </lane>
        <lane id="S1_1" index="1" disallow="tram rail_urban rail rail_electric rail_fast ship" speed="13.89" length="2.57" shape="491.67,627.26 491.89,629.82">
            <param key="origId" value="408747258"/>
        </lane>
        <lane id="S1_2" index="2" disallow="tram rail_urban rail rail_electric rail_fast ship" speed="13.89" length="2.57" shape="488.48,627.53 488.70,630.09">
            <param key="origId" value="408747258"/>
        </lane>
    </edge>
    <edge id="S2" from="J2" to="cluster_2164402551_2164402561_2164664296_2164664304_#8more" name="Calle 13" priority="11" type="highway.secondary" spreadType="center" shape="491.90,629.97 494.56,658.56 494.97,665.29">
        <lane id="S2_0" index="0" disallow="tram rail_urban rail rail_electric rail_fast ship" speed="13.89" length="7.24" shape="495.10,629.82 495.78,637.12">
            <param key="origId" value="571505150 921430816"/>
        </lane>