<?xml version="1.0" encoding="UTF-8"?>

<!-- generated on 2024-03-29 19:29:16.028772 by osmWebWizard.py cecae229d
<configuration>
    <net-file value="/home/etensor/Tesis/sumo/sumo/tools/2024-03-29-19-29-14/osm.net.xml.gz"/>
    <output-trip-file value="/home/etensor/Tesis/sumo/sumo/tools/2024-03-29-19-29-14/osm.bus.trips.xml"/>
    <route-file value="/home/etensor/Tesis/sumo/sumo/tools/2024-03-29-19-29-14/osm.bus.rou.xml"/>
    <prefix value="bus"/>
    <trip-attributes value="departLane=&quot;best&quot;"/>
    <fringe-start-attributes value="departSpeed=&quot;max&quot;"/>
    <vehicle-class value="bus"/>
    <fringe-factor value="5"/>
    <vclass value="bus"/>
    <via-edge-types value="highway.motorway,highway.motorway_link,highway.trunk_link,highway.primary_link,highway.secondary_link,highway.tertiary_link"/>
    <min-distance value="600.0"/>
    <min-distance.fringe value="10.0"/>
    <remove-loops value="True"/>
    <validate value="True"/>
    <insertion-density value="3.0"/>
</configuration>
-->

<!-- generated on 2024-03-29 19:29:16 by Eclipse SUMO duarouter Version 1.19.0
<configuration xmlns:xsi="http://www.w3.org/2001/XMLSchema-instance" xsi:noNamespaceSchemaLocation="http://sumo.dlr.de/xsd/duarouterConfiguration.xsd">

    <input>
        <net-file value="/home/etensor/Tesis/sumo/sumo/tools/2024-03-29-19-29-14/osm.net.xml.gz"/>
        <route-files value="/home/etensor/Tesis/sumo/sumo/tools/2024-03-29-19-29-14/osm.bus.trips.xml"/>
    </input>

    <output>
        <output-file value="/home/etensor/Tesis/sumo/sumo/tools/2024-03-29-19-29-14/osm.bus.trips.xml.tmp"/>
        <alternatives-output value="NUL"/>
        <write-trips value="true"/>
    </output>

    <processing>
        <remove-loops value="true"/>
    </processing>

    <time>
        <begin value="0.0"/>
        <end value="3600.0"/>
    </time>

    <report>
        <no-warnings value="true"/>
        <ignore-errors value="true"/>
        <no-step-log value="true"/>
    </report>

</configuration>
-->

<routes xmlns:xsi="http://www.w3.org/2001/XMLSchema-instance" xsi:noNamespaceSchemaLocation="http://sumo.dlr.de/xsd/routes_file.xsd">
    <vType id="bus_bus" vClass="bus"/>
    <trip id="bus0" type="bus_bus" depart="0.00" departLane="best" departSpeed="max" from="408747258" to="408747258-AddedOffRampEdge"/>
    <trip id="bus1" type="bus_bus" depart="129.05" departLane="best" departSpeed="max" from="408747258" to="570129388"/>
    <trip id="bus2" type="bus_bus" depart="258.10" departLane="best" departSpeed="max" from="408747258" to="570129388"/>
    <trip id="bus3" type="bus_bus" depart="387.15" departLane="best" departSpeed="max" from="408747258" to="356393276#0"/>
    <trip id="bus4" type="bus_bus" depart="516.19" departLane="best" departSpeed="max" from="356854809" to="356393276#0"/>
    <trip id="bus5" type="bus_bus" depart="645.24" departLane="best" departSpeed="max" from="408747258" to="570129388"/>
    <trip id="bus6" type="bus_bus" depart="774.29" departLane="best" departSpeed="max" from="356854809" to="570129379"/>
    <trip id="bus8" type="bus_bus" depart="1032.39" departLane="best" departSpeed="max" from="408747258" to="572479039#2-AddedOnRampEdge"/>
    <trip id="bus9" type="bus_bus" depart="1161.44" departLane="best" departSpeed="max" from="356854809" to="570129379"/>
    <trip id="bus10" type="bus_bus" depart="1290.49" departLane="best" departSpeed="max" from="408747258" to="356393276#0"/>
    <trip id="bus11" type="bus_bus" depart="1419.53" departLane="best" departSpeed="max" from="408747258" to="408747258-AddedOffRampEdge"/>
    <trip id="bus12" type="bus_bus" depart="1548.58" departLane="best" departSpeed="max" from="570129387" to="570129379"/>
    <trip id="bus13" type="bus_bus" depart="1677.63" departLane="best" departSpeed="max" from="356854809" to="356393276#0"/>
    <trip id="bus14" type="bus_bus" depart="1806.68" departLane="best" departSpeed="max" from="356854809" to="570129379"/>
    <trip id="bus15" type="bus_bus" depart="1935.73" departLane="best" departSpeed="max" from="408747258" to="570129388-AddedOnRampEdge"/>
    <trip id="bus16" type="bus_bus" depart="2064.78" departLane="best" departSpeed="max" from="408747258" to="570129388-AddedOnRampEdge"/>
    <trip id="bus17" type="bus_bus" depart="2193.83" departLane="best" departSpeed="max" from="356854809" to="570129379"/>
    <trip id="bus18" type="bus_bus" depart="2322.88" departLane="best" departSpeed="max" from="356854809" to="572479039#2-AddedOnRampEdge"/>
    <trip id="bus19" type="bus_bus" depart="2451.92" departLane="best" departSpeed="max" from="408747258" to="356393276#0"/>
    <trip id="bus20" type="bus_bus" depart="2580.97" departLane="best" departSpeed="max" from="356854809" to="572479039#2"/>
    <trip id="bus21" type="bus_bus" depart="2710.02" departLane="best" departSpeed="max" from="570129387" to="570129388"/>
    <trip id="bus22" type="bus_bus" depart="2839.07" departLane="best" departSpeed="max" from="408747258" to="572479039#2"/>
    <trip id="bus23" type="bus_bus" depart="2968.12" departLane="best" departSpeed="max" from="570129387" to="570129388"/>
    <trip id="bus24" type="bus_bus" depart="3097.17" departLane="best" departSpeed="max" from="408747258" to="570129388"/>
    <trip id="bus25" type="bus_bus" depart="3226.22" departLane="best" departSpeed="max" from="408747258" to="408747258-AddedOffRampEdge"/>
    <trip id="bus26" type="bus_bus" depart="3355.26" departLane="best" departSpeed="max" from="408747258" to="572479039#2"/>
</routes>
