<?xml version="1.0" encoding="UTF-8"?>

<!-- generated on 2024-09-08 19:31:49.498430 by randomTrips.py UNKNOWN
<configuration>
    <net-file value="osm.net.xml"/>
    <output-trip-file value="trips.rou.xml"/>
    <route-file value="routes.rou.xml"/>
    <trip-attributes value="departPos='random' departSpeed='random' departLane='best'"/>
    <fringe-factor value="10"/>
    <validate value="True"/>
    <end value="6000.0"/>
    <period value="0.8"/>
</configuration>
-->

<!-- generated on 2024-09-08 19:31:49 by Eclipse SUMO duarouter Version 1.20.0
<configuration xmlns:xsi="http://www.w3.org/2001/XMLSchema-instance" xsi:noNamespaceSchemaLocation="http://sumo.dlr.de/xsd/duarouterConfiguration.xsd">

    <input>
        <net-file value="osm.net.xml"/>
        <route-files value="trips.rou.xml"/>
    </input>

    <output>
        <output-file value="routes.rou.xml"/>
        <alternatives-output value="NUL"/>
    </output>

    <time>
        <begin value="0"/>
        <end value="6000.0"/>
    </time>

    <report>
        <no-warnings value="true"/>
        <ignore-errors value="true"/>
        <no-step-log value="true"/>
    </report>

</configuration>
-->

<routes xmlns:xsi="http://www.w3.org/2001/XMLSchema-instance" xsi:noNamespaceSchemaLocation="http://sumo.dlr.de/xsd/routes_file.xsd">
    <vehicle id="1" depart="0.80" departLane="best" departPos="random" departSpeed="random">
        <route edges="N0 N EA0"/>
    </vehicle>
    <vehicle id="2" depart="1.60" departLane="best" departPos="random" departSpeed="random">
        <route edges="SA0 SA1 SA2"/>
    </vehicle>
    <vehicle id="5" depart="4.00" departLane="best" departPos="random" departSpeed="random">
        <route edges="N SA0 SA1"/>
    </vehicle>
    <vehicle id="6" depart="4.80" departLane="best" departPos="random" departSpeed="random">
        <route edges="E0 E1 E EA0"/>
    </vehicle>
    <vehicle id="8" depart="6.40" departLane="best" departPos="random" departSpeed="random">
        <route edges="N0 N SA0 SA1 SA2"/>
    </vehicle>
    <vehicle id="11" depart="8.80" departLane="best" departPos="random" departSpeed="random">
        <route edges="N0 N EA0"/>
    </vehicle>
    <vehicle id="13" depart="10.40" departLane="best" departPos="random" departSpeed="random">
        <route edges="E0 E1 E EA0"/>
    </vehicle>
    <vehicle id="15" depart="12.00" departLane="best" departPos="random" departSpeed="random">
        <route edges="W WA0"/>
    </vehicle>
    <vehicle id="17" depart="13.60" departLane="best" departPos="random" departSpeed="random">
        <route edges="N0 N SA0 SA1 SA2"/>
    </vehicle>
    <vehicle id="21" depart="16.80" departLane="best" departPos="random" departSpeed="random">
        <route edges="N0 N NA0"/>
    </vehicle>
    <vehicle id="22" depart="17.60" departLane="best" departPos="random" departSpeed="random">
        <route edges="E0 E1 E EA0"/>
    </vehicle>
    <vehicle id="23" depart="18.40" departLane="best" departPos="random" departSpeed="random">
        <route edges="E0 E1 E NA0"/>
    </vehicle>
    <vehicle id="25" depart="20.00" departLane="best" departPos="random" departSpeed="random">
        <route edges="N0 N EA0"/>
    </vehicle>
    <vehicle id="26" depart="20.80" departLane="best" departPos="random" departSpeed="random">
        <route edges="N0 N WA0 WA1 WA2"/>
    </vehicle>
    <vehicle id="28" depart="22.40" departLane="best" departPos="random" departSpeed="random">
        <route edges="E0 E1 E WA0"/>
    </vehicle>
    <vehicle id="29" depart="23.20" departLane="best" departPos="random" departSpeed="random">
        <route edges="E0 E1 E NA0"/>
    </vehicle>
    <vehicle id="31" depart="24.80" departLane="best" departPos="random" departSpeed="random">
        <route edges="S SA0 SA1 SA2"/>
    </vehicle>
    <vehicle id="32" depart="25.60" departLane="best" departPos="random" departSpeed="random">
        <route edges="W WA0 WA1 WA2"/>
    </vehicle>
    <vehicle id="34" depart="27.20" departLane="best" departPos="random" departSpeed="random">
        <route edges="N0 N NA0"/>
    </vehicle>
    <vehicle id="35" depart="28.00" departLane="best" departPos="random" departSpeed="random">
        <route edges="N WA0 WA1 WA2"/>
    </vehicle>
    <vehicle id="36" depart="28.80" departLane="best" departPos="random" departSpeed="random">
        <route edges="W NA0"/>
    </vehicle>
    <vehicle id="38" depart="30.40" departLane="best" departPos="random" departSpeed="random">
        <route edges="W NA0"/>
    </vehicle>
    <vehicle id="39" depart="31.20" departLane="best" departPos="random" departSpeed="random">
        <route edges="N0 N"/>
    </vehicle>
    <vehicle id="41" depart="32.80" departLane="best" departPos="random" departSpeed="random">
        <route edges="S0 salida_80 WA1 WA2"/>
    </vehicle>
    <vehicle id="42" depart="33.60" departLane="best" departPos="random" departSpeed="random">
        <route edges="S EA0"/>
    </vehicle>
    <vehicle id="44" depart="35.20" departLane="best" departPos="random" departSpeed="random">
        <route edges="E0 E1 E EA0"/>
    </vehicle>
    <vehicle id="45" depart="36.00" departLane="best" departPos="random" departSpeed="random">
        <route edges="E0 E1 salida_5 SA1 SA2"/>
    </vehicle>
    <vehicle id="46" depart="36.80" departLane="best" departPos="random" departSpeed="random">
        <route edges="W NA0"/>
    </vehicle>
    <vehicle id="47" depart="37.60" departLane="best" departPos="random" departSpeed="random">
        <route edges="E0 E1 E NA0"/>
    </vehicle>
    <vehicle id="50" depart="40.00" departLane="best" departPos="random" departSpeed="random">
        <route edges="E WA0"/>
    </vehicle>
    <vehicle id="52" depart="41.60" departLane="best" departPos="random" departSpeed="random">
        <route edges="N0 N SA0 SA1 SA2"/>
    </vehicle>
    <vehicle id="53" depart="42.40" departLane="best" departPos="random" departSpeed="random">
        <route edges="E0 E1 E NA0"/>
    </vehicle>
    <vehicle id="54" depart="43.20" departLane="best" departPos="random" departSpeed="random">
        <route edges="S WA0 WA1 WA2"/>
    </vehicle>
    <vehicle id="56" depart="44.80" departLane="best" departPos="random" departSpeed="random">
        <route edges="S EA0"/>
    </vehicle>
    <vehicle id="57" depart="45.60" departLane="best" departPos="random" departSpeed="random">
        <route edges="W WA0 WA1 WA2"/>
    </vehicle>
    <vehicle id="58" depart="46.40" departLane="best" departPos="random" departSpeed="random">
        <route edges="N0 N SA0 SA1 SA2"/>
    </vehicle>
    <vehicle id="60" depart="48.00" departLane="best" departPos="random" departSpeed="random">
        <route edges="SA1 SA2"/>
    </vehicle>
    <vehicle id="62" depart="49.60" departLane="best" departPos="random" departSpeed="random">
        <route edges="E NA0"/>
    </vehicle>
    <vehicle id="63" depart="50.40" departLane="best" departPos="random" departSpeed="random">
        <route edges="E0 E1 E WA0 WA1 WA2"/>
    </vehicle>
    <vehicle id="64" depart="51.20" departLane="best" departPos="random" departSpeed="random">
        <route edges="W WA0 WA1 WA2"/>
    </vehicle>
    <vehicle id="65" depart="52.00" departLane="best" departPos="random" departSpeed="random">
        <route edges="N0 N EA0"/>
    </vehicle>
    <vehicle id="66" depart="52.80" departLane="best" departPos="random" departSpeed="random">
        <route edges="W WA0 WA1 WA2"/>
    </vehicle>
    <vehicle id="67" depart="53.60" departLane="best" departPos="random" departSpeed="random">
        <route edges="E0 E1 E SA0"/>
    </vehicle>
    <vehicle id="68" depart="54.40" departLane="best" departPos="random" departSpeed="random">
        <route edges="E0 E1 E WA0 WA1 WA2"/>
    </vehicle>
    <vehicle id="70" depart="56.00" departLane="best" departPos="random" departSpeed="random">
        <route edges="S SA0 SA1 SA2"/>
    </vehicle>
    <vehicle id="71" depart="56.80" departLane="best" departPos="random" departSpeed="random">
        <route edges="N0 N WA0 WA1 WA2"/>
    </vehicle>
    <vehicle id="72" depart="57.60" departLane="best" departPos="random" departSpeed="random">
        <route edges="S EA0"/>
    </vehicle>
    <vehicle id="73" depart="58.40" departLane="best" departPos="random" departSpeed="random">
        <route edges="S WA0"/>
    </vehicle>
    <vehicle id="74" depart="59.20" departLane="best" departPos="random" departSpeed="random">
        <route edges="E1 E NA0"/>
    </vehicle>
    <vehicle id="76" depart="60.80" departLane="best" departPos="random" departSpeed="random">
        <route edges="S SA0 SA1 SA2"/>
    </vehicle>
    <vehicle id="77" depart="61.60" departLane="best" departPos="random" departSpeed="random">
        <route edges="E0 E1 E EA0"/>
    </vehicle>
    <vehicle id="78" depart="62.40" departLane="best" departPos="random" departSpeed="random">
        <route edges="N0 N SA0 SA1 SA2"/>
    </vehicle>
    <vehicle id="79" depart="63.20" departLane="best" departPos="random" departSpeed="random">
        <route edges="N0 N EA0"/>
    </vehicle>
    <vehicle id="80" depart="64.00" departLane="best" departPos="random" departSpeed="random">
        <route edges="E0 E1 salida_5 SA1 SA2"/>
    </vehicle>
    <vehicle id="81" depart="64.80" departLane="best" departPos="random" departSpeed="random">
        <route edges="N0 N WA0 WA1 WA2"/>
    </vehicle>
    <vehicle id="83" depart="66.40" departLane="best" departPos="random" departSpeed="random">
        <route edges="N0 N SA0 SA1 SA2"/>
    </vehicle>
    <vehicle id="84" depart="67.20" departLane="best" departPos="random" departSpeed="random">
        <route edges="N EA0"/>
    </vehicle>
    <vehicle id="86" depart="68.80" departLane="best" departPos="random" departSpeed="random">
        <route edges="S WA0 WA1 WA2"/>
    </vehicle>
    <vehicle id="88" depart="70.40" departLane="best" departPos="random" departSpeed="random">
        <route edges="E0 E1 E NA0"/>
    </vehicle>
    <vehicle id="89" depart="71.20" departLane="best" departPos="random" departSpeed="random">
        <route edges="S NA0"/>
    </vehicle>
    <vehicle id="90" depart="72.00" departLane="best" departPos="random" departSpeed="random">
        <route edges="SA0 SA1 SA2"/>
    </vehicle>
    <vehicle id="92" depart="73.60" departLane="best" departPos="random" departSpeed="random">
        <route edges="S NA0"/>
    </vehicle>
    <vehicle id="94" depart="75.20" departLane="best" departPos="random" departSpeed="random">
        <route edges="E1 E NA0"/>
    </vehicle>
    <vehicle id="95" depart="76.00" departLane="best" departPos="random" departSpeed="random">
        <route edges="S NA0"/>
    </vehicle>
    <vehicle id="96" depart="76.80" departLane="best" departPos="random" departSpeed="random">
        <route edges="N0 N WA0 WA1 WA2"/>
    </vehicle>
    <vehicle id="97" depart="77.60" departLane="best" departPos="random" departSpeed="random">
        <route edges="S WA0 WA1 WA2"/>
    </vehicle>
    <vehicle id="98" depart="78.40" departLane="best" departPos="random" departSpeed="random">
        <route edges="S EA0"/>
    </vehicle>
    <vehicle id="99" depart="79.20" departLane="best" departPos="random" departSpeed="random">
        <route edges="salida_80 WA1 WA2"/>
    </vehicle>
    <vehicle id="102" depart="81.60" departLane="best" departPos="random" departSpeed="random">
        <route edges="S EA0"/>
    </vehicle>
    <vehicle id="103" depart="82.40" departLane="best" departPos="random" departSpeed="random">
        <route edges="S EA0"/>
    </vehicle>
    <vehicle id="105" depart="84.00" departLane="best" departPos="random" departSpeed="random">
        <route edges="N0 N WA0 WA1 WA2"/>
    </vehicle>
    <vehicle id="106" depart="84.80" departLane="best" departPos="random" departSpeed="random">
        <route edges="S NA0"/>
    </vehicle>
    <vehicle id="108" depart="86.40" departLane="best" departPos="random" departSpeed="random">
        <route edges="S WA0"/>
    </vehicle>
    <vehicle id="109" depart="87.20" departLane="best" departPos="random" departSpeed="random">
        <route edges="E0 E1 E NA0"/>
    </vehicle>
    <vehicle id="110" depart="88.00" departLane="best" departPos="random" departSpeed="random">
        <route edges="salida_5 SA1 SA2"/>
    </vehicle>
    <vehicle id="111" depart="88.80" departLane="best" departPos="random" departSpeed="random">
        <route edges="S WA0 WA1"/>
    </vehicle>
    <vehicle id="112" depart="89.60" departLane="best" departPos="random" departSpeed="random">
        <route edges="E0 E1 salida_5 SA1 SA2"/>
    </vehicle>
    <vehicle id="113" depart="90.40" departLane="best" departPos="random" departSpeed="random">
        <route edges="S WA0 WA1 WA2"/>
    </vehicle>
    <vehicle id="114" depart="91.20" departLane="best" departPos="random" departSpeed="random">
        <route edges="E0 E1 salida_5"/>
    </vehicle>
    <vehicle id="115" depart="92.00" departLane="best" departPos="random" departSpeed="random">
        <route edges="E0 E1 E EA0"/>
    </vehicle>
    <vehicle id="117" depart="93.60" departLane="best" departPos="random" departSpeed="random">
        <route edges="N0 N EA0"/>
    </vehicle>
    <vehicle id="120" depart="96.00" departLane="best" departPos="random" departSpeed="random">
        <route edges="S SA0 SA1 SA2"/>
    </vehicle>
    <vehicle id="121" depart="96.80" departLane="best" departPos="random" departSpeed="random">
        <route edges="S WA0 WA1 WA2"/>
    </vehicle>
    <vehicle id="122" depart="97.60" departLane="best" departPos="random" departSpeed="random">
        <route edges="N WA0"/>
    </vehicle>
    <vehicle id="123" depart="98.40" departLane="best" departPos="random" departSpeed="random">
        <route edges="N0 N NA0"/>
    </vehicle>
    <vehicle id="125" depart="100.00" departLane="best" departPos="random" departSpeed="random">
        <route edges="N0 N WA0 WA1"/>
    </vehicle>
    <vehicle id="126" depart="100.80" departLane="best" departPos="random" departSpeed="random">
        <route edges="E0 E1 E NA0"/>
    </vehicle>
    <vehicle id="127" depart="101.60" departLane="best" departPos="random" departSpeed="random">
        <route edges="salida_80"/>
    </vehicle>
    <vehicle id="128" depart="102.40" departLane="best" departPos="random" departSpeed="random">
        <route edges="E0 E1 E EA0"/>
    </vehicle>
    <vehicle id="129" depart="103.20" departLane="best" departPos="random" departSpeed="random">
        <route edges="N0 N WA0 WA1 WA2"/>
    </vehicle>
    <vehicle id="130" depart="104.00" departLane="best" departPos="random" departSpeed="random">
        <route edges="W WA0 WA1 WA2"/>
    </vehicle>
    <vehicle id="131" depart="104.80" departLane="best" departPos="random" departSpeed="random">
        <route edges="N0 N EA0"/>
    </vehicle>
    <vehicle id="133" depart="106.40" departLane="best" departPos="random" departSpeed="random">
        <route edges="S0 salida_80"/>
    </vehicle>
    <vehicle id="135" depart="108.00" departLane="best" departPos="random" departSpeed="random">
        <route edges="W NA0"/>
    </vehicle>
    <vehicle id="136" depart="108.80" departLane="best" departPos="random" departSpeed="random">
        <route edges="S0 salida_80 WA1 WA2"/>
    </vehicle>
    <vehicle id="137" depart="109.60" departLane="best" departPos="random" departSpeed="random">
        <route edges="E0 E1 E EA0"/>
    </vehicle>
    <vehicle id="138" depart="110.40" departLane="best" departPos="random" departSpeed="random">
        <route edges="E0 E1 salida_5 SA1 SA2"/>
    </vehicle>
    <vehicle id="139" depart="111.20" departLane="best" departPos="random" departSpeed="random">
        <route edges="N0 N SA0 SA1 SA2"/>
    </vehicle>
    <vehicle id="142" depart="113.60" departLane="best" departPos="random" departSpeed="random">
        <route edges="S WA0 WA1 WA2"/>
    </vehicle>
    <vehicle id="144" depart="115.20" departLane="best" departPos="random" departSpeed="random">
        <route edges="S NA0"/>
    </vehicle>
    <vehicle id="145" depart="116.00" departLane="best" departPos="random" departSpeed="random">
        <route edges="E WA0 WA1 WA2"/>
    </vehicle>
    <vehicle id="147" depart="117.60" departLane="best" departPos="random" departSpeed="random">
        <route edges="SA0 SA1 SA2"/>
    </vehicle>
    <vehicle id="149" depart="119.20" departLane="best" departPos="random" departSpeed="random">
        <route edges="E0 E1 E WA0 WA1 WA2"/>
    </vehicle>
    <vehicle id="152" depart="121.60" departLane="best" departPos="random" departSpeed="random">
        <route edges="E0 E1 E EA0"/>
    </vehicle>
    <vehicle id="153" depart="122.40" departLane="best" departPos="random" departSpeed="random">
        <route edges="N0 N WA0 WA1 WA2"/>
    </vehicle>
    <vehicle id="154" depart="123.20" departLane="best" departPos="random" departSpeed="random">
        <route edges="W WA0 WA1 WA2"/>
    </vehicle>
    <vehicle id="156" depart="124.80" departLane="best" departPos="random" departSpeed="random">
        <route edges="N0 N EA0"/>
    </vehicle>
    <vehicle id="157" depart="125.60" departLane="best" departPos="random" departSpeed="random">
        <route edges="W WA0 WA1 WA2"/>
    </vehicle>
    <vehicle id="158" depart="126.40" departLane="best" departPos="random" departSpeed="random">
        <route edges="S SA0 SA1 SA2"/>
    </vehicle>
    <vehicle id="159" depart="127.20" departLane="best" departPos="random" departSpeed="random">
        <route edges="E0 E1 E WA0 WA1 WA2"/>
    </vehicle>
    <vehicle id="161" depart="128.80" departLane="best" departPos="random" departSpeed="random">
        <route edges="W WA0 WA1 WA2"/>
    </vehicle>
    <vehicle id="162" depart="129.60" departLane="best" departPos="random" departSpeed="random">
        <route edges="E0 E1 E WA0 WA1"/>
    </vehicle>
    <vehicle id="163" depart="130.40" departLane="best" departPos="random" departSpeed="random">
        <route edges="N0 N WA0 WA1 WA2"/>
    </vehicle>
    <vehicle id="164" depart="131.20" departLane="best" departPos="random" departSpeed="random">
        <route edges="W WA0 WA1 WA2"/>
    </vehicle>
    <vehicle id="165" depart="132.00" departLane="best" departPos="random" departSpeed="random">
        <route edges="W NA0"/>
    </vehicle>
    <vehicle id="167" depart="133.60" departLane="best" departPos="random" departSpeed="random">
        <route edges="W WA0 WA1 WA2"/>
    </vehicle>
    <vehicle id="168" depart="134.40" departLane="best" departPos="random" departSpeed="random">
        <route edges="N0 N WA0 WA1 WA2"/>
    </vehicle>
    <vehicle id="169" depart="135.20" departLane="best" departPos="random" departSpeed="random">
        <route edges="S NA0"/>
    </vehicle>
    <vehicle id="171" depart="136.80" departLane="best" departPos="random" departSpeed="random">
        <route edges="E0 E1 E EA0"/>
    </vehicle>
    <vehicle id="172" depart="137.60" departLane="best" departPos="random" departSpeed="random">
        <route edges="N0 N WA0 WA1 WA2"/>
    </vehicle>
    <vehicle id="175" depart="140.00" departLane="best" departPos="random" departSpeed="random">
        <route edges="salida_5 SA1 SA2"/>
    </vehicle>
    <vehicle id="179" depart="143.20" departLane="best" departPos="random" departSpeed="random">
        <route edges="E0 E1 E NA0"/>
    </vehicle>
    <vehicle id="182" depart="145.60" departLane="best" departPos="random" departSpeed="random">
        <route edges="N0 N SA0 SA1 SA2"/>
    </vehicle>
    <vehicle id="183" depart="146.40" departLane="best" departPos="random" departSpeed="random">
        <route edges="N0 N SA0 SA1 SA2"/>
    </vehicle>
    <vehicle id="184" depart="147.20" departLane="best" departPos="random" departSpeed="random">
        <route edges="E WA0 WA1 WA2"/>
    </vehicle>
    <vehicle id="185" depart="148.00" departLane="best" departPos="random" departSpeed="random">
        <route edges="S WA0"/>
    </vehicle>
    <vehicle id="186" depart="148.80" departLane="best" departPos="random" departSpeed="random">
        <route edges="SA0 SA1 SA2"/>
    </vehicle>
    <vehicle id="187" depart="149.60" departLane="best" departPos="random" departSpeed="random">
        <route edges="N0 N EA0"/>
    </vehicle>
    <vehicle id="189" depart="151.20" departLane="best" departPos="random" departSpeed="random">
        <route edges="N0 N WA0 WA1 WA2"/>
    </vehicle>
    <vehicle id="191" depart="152.80" departLane="best" departPos="random" departSpeed="random">
        <route edges="N0 N NA0"/>
    </vehicle>
    <vehicle id="192" depart="153.60" departLane="best" departPos="random" departSpeed="random">
        <route edges="S NA0"/>
    </vehicle>
    <vehicle id="193" depart="154.40" departLane="best" departPos="random" departSpeed="random">
        <route edges="E0 E1 E NA0"/>
    </vehicle>
    <vehicle id="196" depart="156.80" departLane="best" departPos="random" departSpeed="random">
        <route edges="N0 N SA0 SA1 SA2"/>
    </vehicle>
    <vehicle id="197" depart="157.60" departLane="best" departPos="random" departSpeed="random">
        <route edges="E NA0"/>
    </vehicle>
    <vehicle id="198" depart="158.40" departLane="best" departPos="random" departSpeed="random">
        <route edges="S SA0 SA1 SA2"/>
    </vehicle>
    <vehicle id="200" depart="160.00" departLane="best" departPos="random" departSpeed="random">
        <route edges="S EA0"/>
    </vehicle>
    <vehicle id="201" depart="160.80" departLane="best" departPos="random" departSpeed="random">
        <route edges="S WA0 WA1 WA2"/>
    </vehicle>
    <vehicle id="203" depart="162.40" departLane="best" departPos="random" departSpeed="random">
        <route edges="E0 E1 salida_5 SA1 SA2"/>
    </vehicle>
    <vehicle id="205" depart="164.00" departLane="best" departPos="random" departSpeed="random">
        <route edges="W WA0 WA1"/>
    </vehicle>
    <vehicle id="207" depart="165.60" departLane="best" departPos="random" departSpeed="random">
        <route edges="E1"/>
    </vehicle>
    <vehicle id="208" depart="166.40" departLane="best" departPos="random" departSpeed="random">
        <route edges="N0 N SA0"/>
    </vehicle>
    <vehicle id="210" depart="168.00" departLane="best" departPos="random" departSpeed="random">
        <route edges="S SA0 SA1 SA2"/>
    </vehicle>
    <vehicle id="211" depart="168.80" departLane="best" departPos="random" departSpeed="random">
        <route edges="E1 salida_5 SA1 SA2"/>
    </vehicle>
    <vehicle id="212" depart="169.60" departLane="best" departPos="random" departSpeed="random">
        <route edges="S EA0"/>
    </vehicle>
    <vehicle id="215" depart="172.00" departLane="best" departPos="random" departSpeed="random">
        <route edges="E0 E1 E NA0"/>
    </vehicle>
    <vehicle id="216" depart="172.80" departLane="best" departPos="random" departSpeed="random">
        <route edges="E0 E1 E WA0 WA1 WA2"/>
    </vehicle>
    <vehicle id="217" depart="173.60" departLane="best" departPos="random" departSpeed="random">
        <route edges="S EA0"/>
    </vehicle>
    <vehicle id="218" depart="174.40" departLane="best" departPos="random" departSpeed="random">
        <route edges="N0 N WA0 WA1 WA2"/>
    </vehicle>
    <vehicle id="219" depart="175.20" departLane="best" departPos="random" departSpeed="random">
        <route edges="S WA0 WA1 WA2"/>
    </vehicle>
    <vehicle id="220" depart="176.00" departLane="best" departPos="random" departSpeed="random">
        <route edges="S0 salida_80"/>
    </vehicle>
    <vehicle id="221" depart="176.80" departLane="best" departPos="random" departSpeed="random">
        <route edges="S0 salida_80 WA1 WA2"/>
    </vehicle>
    <vehicle id="225" depart="180.00" departLane="best" departPos="random" departSpeed="random">
        <route edges="W WA0 WA1"/>
    </vehicle>
    <vehicle id="227" depart="181.60" departLane="best" departPos="random" departSpeed="random">
        <route edges="N0 N SA0 SA1 SA2"/>
    </vehicle>
    <vehicle id="230" depart="184.00" departLane="best" departPos="random" departSpeed="random">
        <route edges="E0 E1 E NA0"/>
    </vehicle>
    <vehicle id="231" depart="184.80" departLane="best" departPos="random" departSpeed="random">
        <route edges="N0 N NA0"/>
    </vehicle>
    <vehicle id="232" depart="185.60" departLane="best" departPos="random" departSpeed="random">
        <route edges="S EA0"/>
    </vehicle>
    <vehicle id="233" depart="186.40" departLane="best" departPos="random" departSpeed="random">
        <route edges="N0 N SA0 SA1 SA2"/>
    </vehicle>
    <vehicle id="235" depart="188.00" departLane="best" departPos="random" departSpeed="random">
        <route edges="S SA0 SA1 SA2"/>
    </vehicle>
    <vehicle id="236" depart="188.80" departLane="best" departPos="random" departSpeed="random">
        <route edges="S EA0"/>
    </vehicle>
    <vehicle id="237" depart="189.60" departLane="best" departPos="random" departSpeed="random">
        <route edges="S WA0 WA1 WA2"/>
    </vehicle>
    <vehicle id="239" depart="191.20" departLane="best" departPos="random" departSpeed="random">
        <route edges="W WA0 WA1 WA2"/>
    </vehicle>
    <vehicle id="241" depart="192.80" departLane="best" departPos="random" departSpeed="random">
        <route edges="N0 N WA0 WA1"/>
    </vehicle>
    <vehicle id="242" depart="193.60" departLane="best" departPos="random" departSpeed="random">
        <route edges="W WA0 WA1 WA2"/>
    </vehicle>
    <vehicle id="243" depart="194.40" departLane="best" departPos="random" departSpeed="random">
        <route edges="S WA0 WA1"/>
    </vehicle>
    <vehicle id="244" depart="195.20" departLane="best" departPos="random" departSpeed="random">
        <route edges="S SA0 SA1 SA2"/>
    </vehicle>
    <vehicle id="245" depart="196.00" departLane="best" departPos="random" departSpeed="random">
        <route edges="N0 N EA0"/>
    </vehicle>
    <vehicle id="247" depart="197.60" departLane="best" departPos="random" departSpeed="random">
        <route edges="N0 N SA0 SA1 SA2"/>
    </vehicle>
    <vehicle id="248" depart="198.40" departLane="best" departPos="random" departSpeed="random">
        <route edges="S EA0"/>
    </vehicle>
    <vehicle id="249" depart="199.20" departLane="best" departPos="random" departSpeed="random">
        <route edges="S EA0"/>
    </vehicle>
    <vehicle id="251" depart="200.80" departLane="best" departPos="random" departSpeed="random">
        <route edges="S SA0 SA1 SA2"/>
    </vehicle>
    <vehicle id="252" depart="201.60" departLane="best" departPos="random" departSpeed="random">
        <route edges="E0 E1 salida_5 SA1 SA2"/>
    </vehicle>
    <vehicle id="253" depart="202.40" departLane="best" departPos="random" departSpeed="random">
        <route edges="E0 E1 E NA0"/>
    </vehicle>
    <vehicle id="254" depart="203.20" departLane="best" departPos="random" departSpeed="random">
        <route edges="E0 E1 E NA0"/>
    </vehicle>
    <vehicle id="255" depart="204.00" departLane="best" departPos="random" departSpeed="random">
        <route edges="N NA0"/>
    </vehicle>
    <vehicle id="258" depart="206.40" departLane="best" departPos="random" departSpeed="random">
        <route edges="N0 N EA0"/>
    </vehicle>
    <vehicle id="259" depart="207.20" departLane="best" departPos="random" departSpeed="random">
        <route edges="E0 E1 salida_5 SA1 SA2"/>
    </vehicle>
    <vehicle id="261" depart="208.80" departLane="best" departPos="random" departSpeed="random">
        <route edges="S0 salida_80 WA1 WA2"/>
    </vehicle>
    <vehicle id="262" depart="209.60" departLane="best" departPos="random" departSpeed="random">
        <route edges="S0 salida_80 WA1"/>
    </vehicle>
    <vehicle id="264" depart="211.20" departLane="best" departPos="random" departSpeed="random">
        <route edges="E0 E1 E EA0"/>
    </vehicle>
    <vehicle id="265" depart="212.00" departLane="best" departPos="random" departSpeed="random">
        <route edges="E0 E1 salida_5 SA1 SA2"/>
    </vehicle>
    <vehicle id="267" depart="213.60" departLane="best" departPos="random" departSpeed="random">
        <route edges="S0 salida_80 WA1 WA2"/>
    </vehicle>
    <vehicle id="268" depart="214.40" departLane="best" departPos="random" departSpeed="random">
        <route edges="E0 E1 salida_5 SA1 SA2"/>
    </vehicle>
    <vehicle id="271" depart="216.80" departLane="best" departPos="random" departSpeed="random">
        <route edges="E0 E1"/>
    </vehicle>
    <vehicle id="272" depart="217.60" departLane="best" departPos="random" departSpeed="random">
        <route edges="N0 N SA0 SA1 SA2"/>
    </vehicle>
    <vehicle id="276" depart="220.80" departLane="best" departPos="random" departSpeed="random">
        <route edges="E0 E1 E WA0 WA1 WA2"/>
    </vehicle>
    <vehicle id="279" depart="223.20" departLane="best" departPos="random" departSpeed="random">
        <route edges="W NA0"/>
    </vehicle>
    <vehicle id="280" depart="224.00" departLane="best" departPos="random" departSpeed="random">
        <route edges="S NA0"/>
    </vehicle>
    <vehicle id="281" depart="224.80" departLane="best" departPos="random" departSpeed="random">
        <route edges="S NA0"/>
    </vehicle>
    <vehicle id="282" depart="225.60" departLane="best" departPos="random" departSpeed="random">
        <route edges="W WA0 WA1 WA2"/>
    </vehicle>
    <vehicle id="283" depart="226.40" departLane="best" departPos="random" departSpeed="random">
        <route edges="E0 E1 salida_5"/>
    </vehicle>
    <vehicle id="284" depart="227.20" departLane="best" departPos="random" departSpeed="random">
        <route edges="S0 salida_80 WA1 WA2"/>
    </vehicle>
    <vehicle id="287" depart="229.60" departLane="best" departPos="random" departSpeed="random">
        <route edges="N0 N WA0 WA1 WA2"/>
    </vehicle>
    <vehicle id="288" depart="230.40" departLane="best" departPos="random" departSpeed="random">