<?xml version="1.0" encoding="UTF-8"?>

<!-- generated on 2024-06-01 18:45:27.242525 by randomTrips.py UNKNOWN
<configuration>
    <net-file value="osm.net.xml"/>
    <output-trip-file value="trips.rou.xml"/>
    <route-file value="routes.rou.xml"/>
    <trip-attributes value="departPos='random' departSpeed='random' departLane='best'"/>
    <fringe-factor value="10"/>
    <validate value="True"/>
    <end value="6000.0"/>
    <period value="1.0"/>
</configuration>
-->

<!-- generated on 2024-06-01 18:45:26 by Eclipse SUMO duarouter Version 1.19.0
<configuration xmlns:xsi="http://www.w3.org/2001/XMLSchema-instance" xsi:noNamespaceSchemaLocation="http://sumo.dlr.de/xsd/duarouterConfiguration.xsd">

    <input>
        <net-file value="osm.net.xml"/>
        <route-files value="trips.rou.xml"/>
    </input>

    <output>
        <output-file value="trips.rou.xml.tmp"/>
        <alternatives-output value="NUL"/>
        <write-trips value="true"/>
    </output>

    <time>
        <begin value="0"/>
        <end value="6000.0"/>
    </time>

    <report>
        <no-warnings value="true"/>
        <ignore-errors value="true"/>
        <no-step-log value="true"/>
    </report>

</configuration>
-->

<routes xmlns:xsi="http://www.w3.org/2001/XMLSchema-instance" xsi:noNamespaceSchemaLocation="http://sumo.dlr.de/xsd/routes_file.xsd">
    <trip id="1" depart="1.00" departLane="best" departPos="random" departSpeed="random" from="N0" to="EA0"/>
    <trip id="2" depart="2.00" departLane="best" departPos="random" departSpeed="random" from="W0" to="SA2"/>
    <trip id="5" depart="5.00" departLane="best" departPos="random" departSpeed="random" from="N0" to="SA1"/>
    <trip id="6" depart="6.00" departLane="best" departPos="random" departSpeed="random" from="E0" to="EA0"/>
    <trip id="7" depart="7.00" departLane="best" departPos="random" departSpeed="random" from="W0" to="SA2"/>
    <trip id="8" depart="8.00" departLane="best" departPos="random" departSpeed="random" from="N0" to="SA2"/>
    <trip id="11" depart="11.00" departLane="best" departPos="random" departSpeed="random" from="N0" to="EA0"/>
    <trip id="13" depart="13.00" departLane="best" departPos="random" departSpeed="random" from="E0" to="EA0"/>
    <trip id="17" depart="17.00" departLane="best" departPos="random" departSpeed="random" from="N0" to="SA2"/>
    <trip id="20" depart="20.00" departLane="best" departPos="random" departSpeed="random" from="W0" to="EA0"/>
    <trip id="21" depart="21.00" departLane="best" departPos="random" departSpeed="random" from="N0" to="NA0"/>
    <trip id="22" depart="22.00" departLane="best" departPos="random" departSpeed="random" from="E0" to="EA0"/>
    <trip id="23" depart="23.00" departLane="best" departPos="random" departSpeed="random" from="E0" to="NA0"/>
    <trip id="24" depart="24.00" departLane="best" departPos="random" departSpeed="random" from="W0" to="NA0"/>
    <trip id="25" depart="25.00" departLane="best" departPos="random" departSpeed="random" from="N0" to="EA0"/>
    <trip id="26" depart="26.00" departLane="best" departPos="random" departSpeed="random" from="N0" to="WA2"/>
    <trip id="27" depart="27.00" departLane="best" departPos="random" departSpeed="random" from="W0" to="SA2"/>
    <trip id="28" depart="28.00" departLane="best" departPos="random" departSpeed="random" from="E0" to="SA2"/>
    <trip id="29" depart="29.00" departLane="best" departPos="random" departSpeed="random" from="E0" to="NA0"/>
    <trip id="31" depart="31.00" departLane="best" departPos="random" departSpeed="random" from="S2" to="SA2"/>
    <trip id="32" depart="32.00" departLane="best" departPos="random" departSpeed="random" from="salida_80" to="WA2"/>
    <trip id="34" depart="34.00" departLane="best" departPos="random" departSpeed="random" from="N0" to="NA0"/>
    <trip id="35" depart="35.00" departLane="best" departPos="random" departSpeed="random" from="N0" to="WA2"/>
    <trip id="37" depart="37.00" departLane="best" departPos="random" departSpeed="random" from="W0" to="NA0"/>
    <trip id="39" depart="39.00" departLane="best" departPos="random" departSpeed="random" from="N0" to="EA0"/>
    <trip id="40" depart="40.00" departLane="best" departPos="random" departSpeed="random" from="S2" to="NA0"/>
    <trip id="42" depart="42.00" departLane="best" departPos="random" departSpeed="random" from="S1" to="EA0"/>
    <trip id="44" depart="44.00" departLane="best" departPos="random" departSpeed="random" from="E0" to="EA0"/>
    <trip id="45" depart="45.00" departLane="best" departPos="random" departSpeed="random" from="E0" to="SA2"/>
    <trip id="47" depart="47.00" departLane="best" departPos="random" departSpeed="random" from="E0" to="NA0"/>
    <trip id="49" depart="49.00" departLane="best" departPos="random" departSpeed="random" from="salida_80" to="WA2"/>
    <trip id="50" depart="50.00" departLane="best" departPos="random" departSpeed="random" from="E0" to="SA2"/>
    <trip id="51" depart="51.00" departLane="best" departPos="random" departSpeed="random" from="W0" to="SA2"/>
    <trip id="52" depart="52.00" departLane="best" departPos="random" departSpeed="random" from="N0" to="SA2"/>
    <trip id="53" depart="53.00" departLane="best" departPos="random" departSpeed="random" from="E0" to="NA0"/>
    <trip id="56" depart="56.00" departLane="best" departPos="random" departSpeed="random" from="S1" to="EA0"/>
    <trip id="57" depart="57.00" departLane="best" departPos="random" departSpeed="random" from="salida_80" to="WA2"/>
    <trip id="58" depart="58.00" departLane="best" departPos="random" departSpeed="random" from="N0" to="SA2"/>
    <trip id="59" depart="59.00" departLane="best" departPos="random" departSpeed="random" from="W0" to="EA0"/>
    <trip id="60" depart="60.00" departLane="best" departPos="random" departSpeed="random" from="W0" to="SA2"/>
    <trip id="62" depart="62.00" departLane="best" departPos="random" departSpeed="random" from="E0" to="NA0"/>
    <trip id="63" depart="63.00" departLane="best" departPos="random" departSpeed="random" from="E0" to="WA2"/>
    <trip id="64" depart="64.00" departLane="best" departPos="random" departSpeed="random" from="salida_80" to="WA2"/>
    <trip id="65" depart="65.00" departLane="best" departPos="random" departSpeed="random" from="N0" to="EA0"/>
    <trip id="66" depart="66.00" departLane="best" departPos="random" departSpeed="random" from="salida_80" to="WA2"/>
    <trip id="68" depart="68.00" departLane="best" departPos="random" departSpeed="random" from="E0" to="WA1"/>
    <trip id="69" depart="69.00" departLane="best" departPos="random" departSpeed="random" from="W0" to="EA0"/>
    <trip id="70" depart="70.00" departLane="best" departPos="random" departSpeed="random" from="S1" to="SA2"/>
    <trip id="71" depart="71.00" departLane="best" departPos="random" departSpeed="random" from="N0" to="WA2"/>
    <trip id="72" depart="72.00" departLane="best" departPos="random" departSpeed="random" from="S1" to="EA0"/>
    <trip id="74" depart="74.00" departLane="best" departPos="random" departSpeed="random" from="E2" to="NA0"/>
    <trip id="76" depart="76.00" departLane="best" departPos="random" departSpeed="random" from="S1" to="SA1"/>
    <trip id="77" depart="77.00" departLane="best" departPos="random" departSpeed="random" from="E0" to="EA0"/>
    <trip id="78" depart="78.00" departLane="best" departPos="random" departSpeed="random" from="N0" to="SA2"/>
    <trip id="79" depart="79.00" departLane="best" departPos="random" departSpeed="random" from="N0" to="EA0"/>
    <trip id="80" depart="80.00" departLane="best" departPos="random" departSpeed="random" from="E0" to="SA2"/>
    <trip id="81" depart="81.00" departLane="best" departPos="random" departSpeed="random" from="N0" to="WA2"/>
    <trip id="83" depart="83.00" departLane="best" departPos="random" departSpeed="random" from="N0" to="SA2"/>
    <trip id="84" depart="84.00" departLane="best" departPos="random" departSpeed="random" from="N0" to="EA0"/>
    <trip id="88" depart="88.00" departLane="best" departPos="random" departSpeed="random" from="E0" to="NA0"/>
    <trip id="89" depart="89.00" departLane="best" departPos="random" departSpeed="random" from="S1" to="S2"/>
    <trip id="90" depart="90.00" departLane="best" departPos="random" departSpeed="random" from="W0" to="SA2"/>
    <trip id="92" depart="92.00" departLane="best" departPos="random" departSpeed="random" from="S1" to="NA0"/>
    <trip id="94" depart="94.00" departLane="best" departPos="random" departSpeed="random" from="E2" to="NA0"/>
    <trip id="95" depart="95.00" departLane="best" departPos="random" departSpeed="random" from="S1" to="NA0"/>
    <trip id="96" depart="96.00" departLane="best" departPos="random" departSpeed="random" from="N0" to="WA2"/>
    <trip id="98" depart="98.00" departLane="best" departPos="random" departSpeed="random" from="S1" to="EA0"/>
    <trip id="99" depart="99.00" departLane="best" departPos="random" departSpeed="random" from="salida_80" to="WA2"/>
    <trip id="100" depart="100.00" departLane="best" departPos="random" departSpeed="random" from="salida_80" to="WA2"/>
    <trip id="102" depart="102.00" departLane="best" departPos="random" departSpeed="random" from="S1" to="EA0"/>
    <trip id="103" depart="103.00" departLane="best" departPos="random" departSpeed="random" from="S1" to="EA0"/>
    <trip id="105" depart="105.00" departLane="best" departPos="random" departSpeed="random" from="N0" to="WA2"/>
    <trip id="106" depart="106.00" departLane="best" departPos="random" departSpeed="random" from="S1" to="NA0"/>
    <trip id="108" depart="108.00" departLane="best" departPos="random" departSpeed="random" from="S2" to="SA2"/>
    <trip id="109" depart="109.00" departLane="best" departPos="random" departSpeed="random" from="E0" to="NA0"/>
    <trip id="112" depart="112.00" departLane="best" departPos="random" departSpeed="random" from="E0" to="SA2"/>
    <trip id="114" depart="114.00" departLane="best" departPos="random" departSpeed="random" from="E0" to="WA2"/>
    <trip id="115" depart="115.00" departLane="best" departPos="random" departSpeed="random" from="E0" to="EA0"/>
    <trip id="116" depart="116.00" departLane="best" departPos="random" departSpeed="random" from="SA1" to="SA2"/>
    <trip id="117" depart="117.00" departLane="best" departPos="random" departSpeed="random" from="N0" to="EA0"/>
    <trip id="119" depart="119.00" departLane="best" departPos="random" departSpeed="random" from="SA1" to="SA2"/>
    <trip id="120" depart="120.00" departLane="best" departPos="random" departSpeed="random" from="S1" to="SA2"/>
    <trip id="123" depart="123.00" departLane="best" departPos="random" departSpeed="random" from="N0" to="NA0"/>
    <trip id="124" depart="124.00" departLane="best" departPos="random" departSpeed="random" from="W0" to="NA0"/>
    <trip id="125" depart="125.00" departLane="best" departPos="random" departSpeed="random" from="N0" to="WA1"/>
    <trip id="126" depart="126.00" departLane="best" departPos="random" departSpeed="random" from="E0" to="NA0"/>
    <trip id="128" depart="128.00" departLane="best" departPos="random" departSpeed="random" from="E0" to="EA0"/>
    <trip id="129" depart="129.00" departLane="best" departPos="random" departSpeed="random" from="N0" to="WA2"/>
    <trip id="130" depart="130.00" departLane="best" departPos="random" departSpeed="random" from="salida_80" to="WA2"/>
    <trip id="131" depart="131.00" departLane="best" departPos="random" departSpeed="random" from="N0" to="EA0"/>
    <trip id="136" depart="136.00" departLane="best" departPos="random" departSpeed="random" from="W0" to="WA2"/>
    <trip id="137" depart="137.00" departLane="best" departPos="random" departSpeed="random" from="E0" to="EA0"/>
    <trip id="138" depart="138.00" departLane="best" departPos="random" departSpeed="random" from="E0" to="SA2"/>
    <trip id="139" depart="139.00" departLane="best" departPos="random" departSpeed="random" from="N0" to="SA2"/>
    <trip id="140" depart="140.00" departLane="best" departPos="random" departSpeed="random" from="W0" to="EA0"/>
    <trip id="141" depart="141.00" departLane="best" departPos="random" departSpeed="random" from="W0" to="NA0"/>
    <trip id="144" depart="144.00" departLane="best" departPos="random" departSpeed="random" from="S1" to="NA0"/>
    <trip id="145" depart="145.00" departLane="best" departPos="random" departSpeed="random" from="E0" to="WA2"/>
    <trip id="146" depart="146.00" departLane="best" departPos="random" departSpeed="random" from="W0" to="NA0"/>
    <trip id="147" depart="147.00" departLane="best" departPos="random" departSpeed="random" from="W0" to="SA2"/>
    <trip id="149" depart="149.00" departLane="best" departPos="random" departSpeed="random" from="E0" to="WA2"/>
    <trip id="152" depart="152.00" departLane="best" departPos="random" departSpeed="random" from="E0" to="EA0"/>
    <trip id="153" depart="153.00" departLane="best" departPos="random" departSpeed="random" from="N0" to="WA2"/>
    <trip id="154" depart="154.00" departLane="best" departPos="random" departSpeed="random" from="WA1" to="WA2"/>
    <trip id="156" depart="156.00" departLane="best" departPos="random" departSpeed="random" from="N0" to="EA0"/>
    <trip id="157" depart="157.00" departLane="best" departPos="random" departSpeed="random" from="WA0" to="WA2"/>
    <trip id="158" depart="158.00" departLane="best" departPos="random" departSpeed="random" from="S1" to="SA2"/>
    <trip id="159" depart="159.00" departLane="best" departPos="random" departSpeed="random" from="E0" to="WA2"/>
    <trip id="160" depart="160.00" departLane="best" departPos="random" departSpeed="random" from="salida_80" to="WA2"/>
    <trip id="162" depart="162.00" departLane="best" departPos="random" departSpeed="random" from="E0" to="WA0"/>
    <trip id="163" depart="163.00" departLane="best" departPos="random" departSpeed="random" from="N0" to="WA2"/>
    <trip id="164" depart="164.00" departLane="best" departPos="random" departSpeed="random" from="WA1" to="WA2"/>
    <trip id="167" depart="167.00" departLane="best" departPos="random" departSpeed="random" from="salida_80" to="WA2"/>
    <trip id="168" depart="168.00" departLane="best" departPos="random" departSpeed="random" from="N0" to="WA2"/>
    <trip id="169" depart="169.00" departLane="best" departPos="random" departSpeed="random" from="S1" to="NA0"/>
    <trip id="171" depart="171.00" departLane="best" departPos="random" departSpeed="random" from="E0" to="EA0"/>
    <trip id="172" depart="172.00" departLane="best" departPos="random" departSpeed="random" from="N0" to="WA2"/>
    <trip id="174" depart="174.00" departLane="best" departPos="random" departSpeed="random" from="W0" to="NA0"/>
    <trip id="179" depart="179.00" departLane="best" departPos="random" departSpeed="random" from="E0" to="NA0"/>
    <trip id="180" depart="180.00" departLane="best" departPos="random" departSpeed="random" from="W0" to="NA0"/>
    <trip id="181" depart="181.00" departLane="best" departPos="random" departSpeed="random" from="W0" to="SA1"/>
    <trip id="182" depart="182.00" departLane="best" departPos="random" departSpeed="random" from="S1" to="SA2"/>
    <trip id="183" depart="183.00" departLane="best" departPos="random" departSpeed="random" from="N0" to="SA2"/>
    <trip id="184" depart="184.00" departLane="best" departPos="random" departSpeed="random" from="E0" to="WA2"/>
    <trip id="185" depart="185.00" departLane="best" departPos="random" departSpeed="random" from="S1" to="SA2"/>
    <trip id="186" depart="186.00" departLane="best" departPos="random" departSpeed="random" from="W0" to="SA2"/>
    <trip id="187" depart="187.00" departLane="best" departPos="random" departSpeed="random" from="N0" to="EA0"/>
    <trip id="188" depart="188.00" departLane="best" departPos="random" departSpeed="random" from="W0" to="NA0"/>
    <trip id="189" depart="189.00" departLane="best" departPos="random" departSpeed="random" from="N0" to="WA2"/>
    <trip id="190" depart="190.00" departLane="best" departPos="random" departSpeed="random" from="W0" to="NA0"/>
    <trip id="191" depart="191.00" departLane="best" departPos="random" departSpeed="random" from="N0" to="NA0"/>
    <trip id="192" depart="192.00" departLane="best" departPos="random" departSpeed="random" from="S1" to="NA0"/>
    <trip id="193" depart="193.00" departLane="best" departPos="random" departSpeed="random" from="E0" to="NA0"/>
    <trip id="196" depart="196.00" departLane="best" departPos="random" departSpeed="random" from="N0" to="SA2"/>
    <trip id="197" depart="197.00" departLane="best" departPos="random" departSpeed="random" from="E0" to="NA0"/>
    <trip id="198" depart="198.00" departLane="best" departPos="random" departSpeed="random" from="S1" to="SA2"/>
    <trip id="200" depart="200.00" departLane="best" departPos="random" departSpeed="random" from="S1" to="EA0"/>
    <trip id="203" depart="203.00" departLane="best" departPos="random" departSpeed="random" from="E0" to="SA1"/>
    <trip id="204" depart="204.00" departLane="best" departPos="random" departSpeed="random" from="W0" to="NA0"/>
    <trip id="206" depart="206.00" departLane="best" departPos="random" departSpeed="random" from="W0" to="EA0"/>
    <trip id="207" depart="207.00" departLane="best" departPos="random" departSpeed="random" from="E2" to="E2"/>
    <trip id="210" depart="210.00" departLane="best" departPos="random" departSpeed="random" from="S1" to="SA2"/>
    <trip id="212" depart="212.00" departLane="best" departPos="random" departSpeed="random" from="S1" to="EA0"/>
    <trip id="214" depart="214.00" departLane="best" departPos="random" departSpeed="random" from="W0" to="WA1"/>
    <trip id="215" depart="215.00" departLane="best" departPos="random" departSpeed="random" from="E0" to="NA0"/>
    <trip id="216" depart="216.00" departLane="best" departPos="random" departSpeed="random" from="E1" to="WA2"/>
    <trip id="217" depart="217.00" departLane="best" departPos="random" departSpeed="random" from="S1" to="EA0"/>
    <trip id="218" depart="218.00" departLane="best" departPos="random" departSpeed="random" from="N0" to="WA2"/>
    <trip id="223" depart="223.00" departLane="best" departPos="random" departSpeed="random" from="W0" to="SA1"/>
    <trip id="226" depart="226.00" departLane="best" departPos="random" departSpeed="random" from="S1" to="NA0"/>
    <trip id="227" depart="227.00" departLane="best" departPos="random" departSpeed="random" from="N0" to="SA2"/>
    <trip id="228" depart="228.00" departLane="best" departPos="random" departSpeed="random" from="W0" to="SA2"/>
    <trip id="229" depart="229.00" departLane="best" departPos="random" departSpeed="random" from="W0" to="NA0"/>
    <trip id="230" depart="230.00" departLane="best" departPos="random" departSpeed="random" from="E0" to="NA0"/>
    <trip id="231" depart="231.00" departLane="best" departPos="random" departSpeed="random" from="N0" to="NA0"/>
    <trip id="232" depart="232.00" departLane="best" departPos="random" departSpeed="random" from="S1" to="EA0"/>
    <trip id="233" depart="233.00" departLane="best" departPos="random" departSpeed="random" from="N0" to="SA2"/>
    <trip id="234" depart="234.00" departLane="best" departPos="random" departSpeed="random" from="W0" to="EA0"/>
    <trip id="235" depart="235.00" departLane="best" departPos="random" departSpeed="random" from="S1" to="SA2"/>
    <trip id="236" depart="236.00" departLane="best" departPos="random" departSpeed="random" from="S1" to="EA0"/>
    <trip id="238" depart="238.00" departLane="best" departPos="random" departSpeed="random" from="SA0" to="SA2"/>
    <trip id="239" depart="239.00" departLane="best" departPos="random" departSpeed="random" from="salida_80" to="WA1"/>
    <trip id="241" depart="241.00" departLane="best" departPos="random" departSpeed="random" from="N0" to="WA1"/>
    <trip id="242" depart="242.00" departLane="best" departPos="random" departSpeed="random" from="salida_80" to="WA2"/>
    <trip id="244" depart="244.00" departLane="best" departPos="random" departSpeed="random" from="S1" to="SA2"/>
    <trip id="245" depart="245.00" departLane="best" departPos="random" departSpeed="random" from="N0" to="EA0"/>
    <trip id="247" depart="247.00" departLane="best" departPos="random" departSpeed="random" from="N0" to="SA2"/>
    <trip id="248" depart="248.00" departLane="best" departPos="random" departSpeed="random" from="S1" to="EA0"/>
    <trip id="249" depart="249.00" departLane="best" departPos="random" departSpeed="random" from="S1" to="EA0"/>
    <trip id="251" depart="251.00" departLane="best" departPos="random" departSpeed="random" from="S1" to="SA2"/>
    <trip id="252" depart="252.00" departLane="best" departPos="random" departSpeed="random" from="E0" to="SA2"/>
    <trip id="254" depart="254.00" departLane="best" departPos="random" departSpeed="random" from="E0" to="NA0"/>
    <trip id="255" depart="255.00" departLane="best" departPos="random" departSpeed="random" from="N0" to="NA0"/>
    <trip id="256" depart="256.00" departLane="best" departPos="random" departSpeed="random" from="W0" to="NA0"/>
    <trip id="257" depart="257.00" departLane="best" departPos="random" departSpeed="random" from="W0" to="WA2"/>
    <trip id="258" depart="258.00" departLane="best" departPos="random" departSpeed="random" from="N0" to="EA0"/>
    <trip id="259" depart="259.00" departLane="best" departPos="random" departSpeed="random" from="E0" to="SA2"/>
    <trip id="261" depart="261.00" departLane="best" departPos="random" departSpeed="random" from="W0" to="WA2"/>
    <trip id="262" depart="262.00" departLane="best" departPos="random" departSpeed="random" from="W0" to="WA1"/>
    <trip id="264" depart="264.00" departLane="best" departPos="random" departSpeed="random" from="E0" to="EA0"/>
    <trip id="265" depart="265.00" departLane="best" departPos="random" departSpeed="random" from="E0" to="SA2"/>
    <trip id="266" depart="266.00" departLane="best" departPos="random" departSpeed="random" from="S2" to="EA0"/>
    <trip id="267" depart="267.00" departLane="best" departPos="random" departSpeed="random" from="W0" to="WA1"/>
    <trip id="268" depart="268.00" departLane="best" departPos="random" departSpeed="random" from="E0" to="SA2"/>
    <trip id="269" depart="269.00" departLane="best" departPos="random" departSpeed="random" from="W0" to="EA0"/>
    <trip id="271" depart="271.00" departLane="best" departPos="random" departSpeed="random" from="E0" to="E2"/>
    <trip id="272" depart="272.00" departLane="best" departPos="random" departSpeed="random" from="N0" to="SA2"/>
    <trip id="274" depart="274.00" departLane="best" departPos="random" departSpeed="random" from="W0" to="EA0"/>
    <trip id="275" depart="275.00" departLane="best" departPos="random" departSpeed="random" from="W0" to="SA2"/>
    <trip id="276" depart="276.00" departLane="best" departPos="random" departSpeed="random" from="E0" to="WA2"/>
    <trip id="278" depart="278.00" departLane="best" departPos="random" departSpeed="random" from="E0" to="salida_5"/>
    <trip id="280" depart="280.00" departLane="best" departPos="random" departSpeed="random" from="S1" to="NA0"/>
    <trip id="281" depart="281.00" departLane="best" departPos="random" departSpeed="random" from="S1" to="NA0"/>
    <trip id="282" depart="282.00" departLane="best" departPos="random" departSpeed="random" from="salida_80" to="WA2"/>
    <trip id="283" depart="283.00" departLane="best" departPos="random" departSpeed="random" from="E0" to="WA2"/>
    <trip id="284" depart="284.00" departLane="best" departPos="random" departSpeed="random" from="W0" to="WA2"/>
    <trip id="285" depart="285.00" departLane="best" departPos="random" departSpeed="random" from="W0" to="NA0"/>
    <trip id="286" depart="286.00" departLane="best" departPos="random" departSpeed="random" from="W0" to="WA2"/>
    <trip id="287" depart="287.00" departLane="best" departPos="random" departSpeed="random" from="N0" to="WA2"/>
    <trip id="288" depart="288.00" departLane="best" departPos="random" departSpeed="random" from="S1" to="SA0"/>
    <trip id="290" depart="290.00" departLane="best" departPos="random" departSpeed="random" from="N0" to="WA2"/>
    <trip id="293" depart="293.00" departLane="best" departPos="random" departSpeed="random" from="S1" to="SA2"/>
    <trip id="296" depart="296.00" departLane="best" departPos="random" departSpeed="random" from="N0" to="WA2"/>
    <trip id="297" depart="297.00" departLane="best" departPos="random" departSpeed="random" from="N0" to="WA2"/>
    <trip id="298" depart="298.00" departLane="best" departPos="random" departSpeed="random" from="W0" to="NA0"/>
    <trip id="299" depart="299.00" departLane="best" departPos="random" departSpeed="random" from="E0" to="WA2"/>
    <trip id="300" depart="300.00" departLane="best" departPos="random" departSpeed="random" from="E0" to="SA2"/>
    <trip id="302" depart="302.00" departLane="best" departPos="random" departSpeed="random" from="W0" to="SA2"/>
    <trip id="304" depart="304.00" departLane="best" departPos="random" departSpeed="random" from="E0" to="EA0"/>
    <trip id="305" depart="305.00" departLane="best" departPos="random" departSpeed="random" from="W0" to="NA0"/>
    <trip id="307" depart="307.00" departLane="best" departPos="random" departSpeed="random" from="S1" to="NA0"/>
    <trip id="308" depart="308.00" departLane="best" departPos="random" departSpeed="random" from="W0" to="NA0"/>
    <trip id="309" depart="309.00" departLane="best" departPos="random" departSpeed="random" from="W0" to="NA0"/>
    <trip id="310" depart="310.00" departLane="best" departPos="random" departSpeed="random" from="N0" to="EA0"/>
    <trip id="311" depart="311.00" departLane="best" departPos="random" departSpeed="random" from="E2" to="EA0"/>
    <trip id="313" depart="313.00" departLane="best" departPos="random" departSpeed="random" from="E1" to="EA0"/>
    <trip id="314" depart="314.00" departLane="best" departPos="random" departSpeed="random" from="S1" to="SA2"/>
    <trip id="316" depart="316.00" departLane="best" departPos="random" departSpeed="random" from="N0" to="EA0"/>
    <trip id="317" depart="317.00" departLane="best" departPos="random" departSpeed="random" from="E2" to="EA0"/>
    <trip id="318" depart="318.00" departLane="best" departPos="random" departSpeed="random" from="E1" to="E1"/>
    <trip id="319" depart="319.00" departLane="best" departPos="random" departSpeed="random" from="S1" to="NA0"/>
    <trip id="321" depart="321.00" departLane="best" departPos="random" departSpeed="random" from="W0" to="EA0"/>
    <trip id="324" depart="324.00" departLane="best" departPos="random" departSpeed="random" from="S1" to="NA0"/>
    <trip id="325" depart="325.00" departLane="best" departPos="random" departSpeed="random" from="E1" to="EA0"/>
    <trip id="328" depart="328.00" departLane="best" departPos="random" departSpeed="random" from="E0" to="SA2"/>
    <trip id="329" depart="329.00" departLane="best" departPos="random" departSpeed="random" from="E0" to="EA0"/>
    <trip id="330" depart="330.00" departLane="best" departPos="random" departSpeed="random" from="S2" to="NA0"/>
    <trip id="332" depart="332.00" departLane="best" departPos="random" departSpeed="random" from="W0" to="SA2"/>
    <trip id="334" depart="334.00" departLane="best" departPos="random" departSpeed="random" from="S1" to="NA0"/>
    <trip id="337" depart="337.00" departLane="best" departPos="random" departSpeed="random" from="W0" to="SA2"/>
    <trip id="338" depart="338.00" departLane="best" departPos="random" departSpeed="random" from="W0" to="WA2"/>
    <trip id="339" depart="339.00" departLane="best" departPos="random" departSpeed="random" from="N0" to="EA0"/>
    <trip id="340" depart="340.00" departLane="best" departPos="random" departSpeed="random" from="W0" to="EA0"/>
    <trip id="341" depart="341.00" departLane="best" departPos="random" departSpeed="random" from="E1" to="EA0"/>
    <trip id="342" depart="342.00" departLane="best" departPos="random" departSpeed="random" from="E0" to="NA0"/>
    <trip id="344" depart="344.00" departLane="best" departPos="random" departSpeed="random" from="N0" to="SA2"/>
    <trip id="345" depart="345.00" departLane="best" departPos="random" departSpeed="random" from="W0" to="NA0"/>
    <trip id="346" depart="346.00" departLane="best" departPos="random" departSpeed="random" from="W0" to="WA2"/>
    <trip id="348" depart="348.00" departLane="best" departPos="random" departSpeed="random" from="W0" to="WA2"/>
    <trip id="349" depart="349.00" departLane="best" departPos="random" departSpeed="random" from="S1" to="SA2"/>
    <trip id="350" depart="350.00" departLane="best" departPos="random" departSpeed="random" from="W0" to="WA2"/>
    <trip id="352" depart="352.00" departLane="best" departPos="random" departSpeed="random" from="E0" to="NA0"/>
    <trip id="353" depart="353.00" departLane="best" departPos="random" departSpeed="random" from="W0" to="SA2"/>
    <trip id="354" depart="354.00" departLane="best" departPos="random" departSpeed="random" from="N0" to="EA0"/>
    <trip id="355" depart="355.00" departLane="best" departPos="random" departSpeed="random" from="W0" to="SA2"/>
    <trip id="357" depart="357.00" departLane="best" departPos="random" departSpeed="random" from="S1" to="EA0"/>
    <trip id="358" depart="358.00" departLane="best" departPos="random" departSpeed="random" from="E0" to="NA0"/>
    <trip id="359" depart="359.00" departLane="best" departPos="random" departSpeed="random" from="N0" to="NA0"/>
    <trip id="360" depart="360.00" departLane="best" departPos="random" departSpeed="random" from="E0" to="WA2"/>
    <trip id="363" depart="363.00" departLane="best" departPos="random" departSpeed="random" from="W0" to="NA0"/>
    <trip id="364" depart="364.00" departLane="best" departPos="random" departSpeed="random" from="E0" to="WA1"/>