<?xml version="1.0" encoding="UTF-8"?>

<!-- generated on 2024-08-10 19:46:03.659733 by randomTrips.py UNKNOWN
<configuration>
    <net-file value="osm.net.xml"/>
    <output-trip-file value="trips.rou.xml"/>
    <route-file value="routes.rou.xml"/>
    <trip-attributes value="departPos='random' departSpeed='random' departLane='best'"/>
    <fringe-factor value="10"/>
    <validate value="True"/>
    <end value="6000.0"/>
    <period value="0.7"/>
</configuration>
-->

<!-- generated on 2024-08-10 19:46:03 by Eclipse SUMO duarouter Version 1.19.0
<configuration xmlns:xsi="http://www.w3.org/2001/XMLSchema-instance" xsi:noNamespaceSchemaLocation="http://sumo.dlr.de/xsd/duarouterConfiguration.xsd">

    <input>
        <net-file value="osm.net.xml"/>
        <route-files value="trips.rou.xml"/>
    </input>

    <output>
        <output-file value="trips.rou.xml.tmp"/>
        <alternatives-output value="NUL"/>
        <write-trips value="true"/>
    </output>

    <time>
        <begin value="0"/>
        <end value="6000.0"/>
    </time>

    <report>
        <no-warnings value="true"/>
        <ignore-errors value="true"/>
        <no-step-log value="true"/>
    </report>

</configuration>
-->

<routes xmlns:xsi="http://www.w3.org/2001/XMLSchema-instance" xsi:noNamespaceSchemaLocation="http://sumo.dlr.de/xsd/routes_file.xsd">
    <trip id="1" depart="0.70" departLane="best" departPos="random" departSpeed="random" from="N" to="EA0"/>
    <trip id="2" depart="1.40" departLane="best" departPos="random" departSpeed="random" from="W" to="SA2"/>
    <trip id="3" depart="2.10" departLane="best" departPos="random" departSpeed="random" from="W" to="EA0"/>
    <trip id="5" depart="3.50" departLane="best" departPos="random" departSpeed="random" from="E0" to="SA1"/>
    <trip id="6" depart="4.20" departLane="best" departPos="random" departSpeed="random" from="E0" to="EA0"/>
    <trip id="7" depart="4.90" departLane="best" departPos="random" departSpeed="random" from="S0" to="SA2"/>
    <trip id="8" depart="5.60" departLane="best" departPos="random" departSpeed="random" from="E1" to="SA2"/>
    <trip id="10" depart="7.00" departLane="best" departPos="random" departSpeed="random" from="W" to="SA2"/>
    <trip id="11" depart="7.70" departLane="best" departPos="random" departSpeed="random" from="N" to="EA0"/>
    <trip id="13" depart="9.10" departLane="best" departPos="random" departSpeed="random" from="E0" to="EA0"/>
    <trip id="14" depart="9.80" departLane="best" departPos="random" departSpeed="random" from="W" to="SA2"/>
    <trip id="15" depart="10.50" departLane="best" departPos="random" departSpeed="random" from="W" to="WA0"/>
    <trip id="17" depart="11.90" departLane="best" departPos="random" departSpeed="random" from="N" to="SA2"/>
    <trip id="18" depart="12.60" departLane="best" departPos="random" departSpeed="random" from="W" to="SA2"/>
    <trip id="19" depart="13.30" departLane="best" departPos="random" departSpeed="random" from="W" to="SA2"/>
    <trip id="21" depart="14.70" departLane="best" departPos="random" departSpeed="random" from="E1" to="NA0"/>
    <trip id="22" depart="15.40" departLane="best" departPos="random" departSpeed="random" from="E0" to="EA0"/>
    <trip id="23" depart="16.10" departLane="best" departPos="random" departSpeed="random" from="E0" to="NA0"/>
    <trip id="24" depart="16.80" departLane="best" departPos="random" departSpeed="random" from="S0" to="NA0"/>
    <trip id="25" depart="17.50" departLane="best" departPos="random" departSpeed="random" from="N" to="EA0"/>
    <trip id="26" depart="18.20" departLane="best" departPos="random" departSpeed="random" from="N" to="WA2"/>
    <trip id="27" depart="18.90" departLane="best" departPos="random" departSpeed="random" from="S0" to="SA2"/>
    <trip id="28" depart="19.60" departLane="best" departPos="random" departSpeed="random" from="E0" to="WA0"/>
    <trip id="29" depart="20.30" departLane="best" departPos="random" departSpeed="random" from="E0" to="NA0"/>
    <trip id="31" depart="21.70" departLane="best" departPos="random" departSpeed="random" from="S0" to="SA2"/>
    <trip id="32" depart="22.40" departLane="best" departPos="random" departSpeed="random" from="W" to="WA2"/>
    <trip id="33" depart="23.10" departLane="best" departPos="random" departSpeed="random" from="E1" to="E1"/>
    <trip id="34" depart="23.80" departLane="best" departPos="random" departSpeed="random" from="N" to="NA0"/>
    <trip id="35" depart="24.50" departLane="best" departPos="random" departSpeed="random" from="E0" to="WA2"/>
    <trip id="36" depart="25.20" departLane="best" departPos="random" departSpeed="random" from="W" to="NA0"/>
    <trip id="37" depart="25.90" departLane="best" departPos="random" departSpeed="random" from="S0" to="NA0"/>
    <trip id="39" depart="27.30" departLane="best" departPos="random" departSpeed="random" from="N" to="NA0"/>
    <trip id="40" depart="28.00" departLane="best" departPos="random" departSpeed="random" from="S0" to="NA0"/>
    <trip id="41" depart="28.70" departLane="best" departPos="random" departSpeed="random" from="S0" to="WA2"/>
    <trip id="42" depart="29.40" departLane="best" departPos="random" departSpeed="random" from="N" to="EA0"/>
    <trip id="44" depart="30.80" departLane="best" departPos="random" departSpeed="random" from="E0" to="EA0"/>
    <trip id="45" depart="31.50" departLane="best" departPos="random" departSpeed="random" from="E0" to="SA2"/>
    <trip id="46" depart="32.20" departLane="best" departPos="random" departSpeed="random" from="W" to="NA0"/>
    <trip id="47" depart="32.90" departLane="best" departPos="random" departSpeed="random" from="E0" to="NA0"/>
    <trip id="50" depart="35.00" departLane="best" departPos="random" departSpeed="random" from="E" to="WA0"/>
    <trip id="51" depart="35.70" departLane="best" departPos="random" departSpeed="random" from="SA0" to="SA2"/>
    <trip id="52" depart="36.40" departLane="best" departPos="random" departSpeed="random" from="N" to="SA2"/>
    <trip id="53" depart="37.10" departLane="best" departPos="random" departSpeed="random" from="E0" to="NA0"/>
    <trip id="55" depart="38.50" departLane="best" departPos="random" departSpeed="random" from="W" to="NA0"/>
    <trip id="56" depart="39.20" departLane="best" departPos="random" departSpeed="random" from="S0" to="EA0"/>
    <trip id="57" depart="39.90" departLane="best" departPos="random" departSpeed="random" from="W" to="WA2"/>
    <trip id="58" depart="40.60" departLane="best" departPos="random" departSpeed="random" from="N" to="SA2"/>
    <trip id="59" depart="41.30" departLane="best" departPos="random" departSpeed="random" from="S0" to="EA0"/>
    <trip id="60" depart="42.00" departLane="best" departPos="random" departSpeed="random" from="W" to="SA2"/>
    <trip id="61" depart="42.70" departLane="best" departPos="random" departSpeed="random" from="W" to="SA2"/>
    <trip id="62" depart="43.40" departLane="best" departPos="random" departSpeed="random" from="E" to="NA0"/>
    <trip id="63" depart="44.10" departLane="best" departPos="random" departSpeed="random" from="E" to="WA2"/>
    <trip id="64" depart="44.80" departLane="best" departPos="random" departSpeed="random" from="W" to="WA2"/>
    <trip id="65" depart="45.50" departLane="best" departPos="random" departSpeed="random" from="N" to="EA0"/>
    <trip id="66" depart="46.20" departLane="best" departPos="random" departSpeed="random" from="W" to="WA2"/>
    <trip id="68" depart="47.60" departLane="best" departPos="random" departSpeed="random" from="E0" to="WA2"/>
    <trip id="69" depart="48.30" departLane="best" departPos="random" departSpeed="random" from="W" to="EA0"/>
    <trip id="70" depart="49.00" departLane="best" departPos="random" departSpeed="random" from="S0" to="SA2"/>
    <trip id="71" depart="49.70" departLane="best" departPos="random" departSpeed="random" from="N" to="WA2"/>
    <trip id="72" depart="50.40" departLane="best" departPos="random" departSpeed="random" from="N" to="EA0"/>
    <trip id="74" depart="51.80" departLane="best" departPos="random" departSpeed="random" from="E0" to="NA0"/>
    <trip id="76" depart="53.20" departLane="best" departPos="random" departSpeed="random" from="N" to="SA1"/>
    <trip id="77" depart="53.90" departLane="best" departPos="random" departSpeed="random" from="E0" to="EA0"/>
    <trip id="78" depart="54.60" departLane="best" departPos="random" departSpeed="random" from="N" to="SA2"/>
    <trip id="79" depart="55.30" departLane="best" departPos="random" departSpeed="random" from="E1" to="EA0"/>
    <trip id="80" depart="56.00" departLane="best" departPos="random" departSpeed="random" from="E0" to="SA2"/>
    <trip id="81" depart="56.70" departLane="best" departPos="random" departSpeed="random" from="E1" to="WA2"/>
    <trip id="82" depart="57.40" departLane="best" departPos="random" departSpeed="random" from="W" to="EA0"/>
    <trip id="83" depart="58.10" departLane="best" departPos="random" departSpeed="random" from="E1" to="SA2"/>
    <trip id="84" depart="58.80" departLane="best" departPos="random" departSpeed="random" from="E0" to="EA0"/>
    <trip id="86" depart="60.20" departLane="best" departPos="random" departSpeed="random" from="S0" to="WA2"/>
    <trip id="87" depart="60.90" departLane="best" departPos="random" departSpeed="random" from="W" to="EA0"/>
    <trip id="88" depart="61.60" departLane="best" departPos="random" departSpeed="random" from="E0" to="NA0"/>
    <trip id="90" depart="63.00" departLane="best" departPos="random" departSpeed="random" from="W" to="SA2"/>
    <trip id="92" depart="64.40" departLane="best" departPos="random" departSpeed="random" from="N" to="NA0"/>
    <trip id="93" depart="65.10" departLane="best" departPos="random" departSpeed="random" from="W" to="NA0"/>
    <trip id="95" depart="66.50" departLane="best" departPos="random" departSpeed="random" from="N" to="NA0"/>
    <trip id="96" depart="67.20" departLane="best" departPos="random" departSpeed="random" from="N" to="WA2"/>
    <trip id="98" depart="68.60" departLane="best" departPos="random" departSpeed="random" from="S0" to="EA0"/>
    <trip id="99" depart="69.30" departLane="best" departPos="random" departSpeed="random" from="salida_80" to="WA2"/>
    <trip id="101" depart="70.70" departLane="best" departPos="random" departSpeed="random" from="W" to="EA0"/>
    <trip id="102" depart="71.40" departLane="best" departPos="random" departSpeed="random" from="S0" to="EA0"/>
    <trip id="103" depart="72.10" departLane="best" departPos="random" departSpeed="random" from="N" to="EA0"/>
    <trip id="105" depart="73.50" departLane="best" departPos="random" departSpeed="random" from="N" to="WA2"/>
    <trip id="106" depart="74.20" departLane="best" departPos="random" departSpeed="random" from="S" to="NA0"/>
    <trip id="108" depart="75.60" departLane="best" departPos="random" departSpeed="random" from="S0" to="SA2"/>
    <trip id="109" depart="76.30" departLane="best" departPos="random" departSpeed="random" from="E0" to="NA0"/>
    <trip id="110" depart="77.00" departLane="best" departPos="random" departSpeed="random" from="salida_5" to="SA2"/>
    <trip id="111" depart="77.70" departLane="best" departPos="random" departSpeed="random" from="S0" to="WA1"/>
    <trip id="112" depart="78.40" departLane="best" departPos="random" departSpeed="random" from="E0" to="SA2"/>
    <trip id="113" depart="79.10" departLane="best" departPos="random" departSpeed="random" from="S0" to="WA2"/>
    <trip id="114" depart="79.80" departLane="best" departPos="random" departSpeed="random" from="E0" to="salida_5"/>
    <trip id="115" depart="80.50" departLane="best" departPos="random" departSpeed="random" from="E0" to="EA0"/>
    <trip id="116" depart="81.20" departLane="best" departPos="random" departSpeed="random" from="S0" to="SA2"/>
    <trip id="117" depart="81.90" departLane="best" departPos="random" departSpeed="random" from="E1" to="EA0"/>
    <trip id="118" depart="82.60" departLane="best" departPos="random" departSpeed="random" from="W" to="NA0"/>
    <trip id="119" depart="83.30" departLane="best" departPos="random" departSpeed="random" from="S0" to="SA2"/>
    <trip id="120" depart="84.00" departLane="best" departPos="random" departSpeed="random" from="N" to="SA2"/>
    <trip id="121" depart="84.70" departLane="best" departPos="random" departSpeed="random" from="S0" to="WA2"/>
    <trip id="122" depart="85.40" departLane="best" departPos="random" departSpeed="random" from="E0" to="SA2"/>
    <trip id="123" depart="86.10" departLane="best" departPos="random" departSpeed="random" from="E1" to="NA0"/>
    <trip id="124" depart="86.80" departLane="best" departPos="random" departSpeed="random" from="S1" to="NA0"/>
    <trip id="125" depart="87.50" departLane="best" departPos="random" departSpeed="random" from="N" to="WA1"/>
    <trip id="127" depart="88.90" departLane="best" departPos="random" departSpeed="random" from="salida_80" to="salida_80"/>
    <trip id="128" depart="89.60" departLane="best" departPos="random" departSpeed="random" from="E0" to="EA0"/>
    <trip id="129" depart="90.30" departLane="best" departPos="random" departSpeed="random" from="N" to="WA2"/>
    <trip id="130" depart="91.00" departLane="best" departPos="random" departSpeed="random" from="W" to="WA2"/>
    <trip id="131" depart="91.70" departLane="best" departPos="random" departSpeed="random" from="N" to="EA0"/>
    <trip id="132" depart="92.40" departLane="best" departPos="random" departSpeed="random" from="W" to="SA2"/>
    <trip id="133" depart="93.10" departLane="best" departPos="random" departSpeed="random" from="S0" to="salida_80"/>
    <trip id="135" depart="94.50" departLane="best" departPos="random" departSpeed="random" from="W" to="NA0"/>
    <trip id="137" depart="95.90" departLane="best" departPos="random" departSpeed="random" from="E0" to="EA0"/>
    <trip id="138" depart="96.60" departLane="best" departPos="random" departSpeed="random" from="E0" to="SA2"/>
    <trip id="139" depart="97.30" departLane="best" departPos="random" departSpeed="random" from="N" to="SA2"/>
    <trip id="141" depart="98.70" departLane="best" departPos="random" departSpeed="random" from="S0" to="NA0"/>
    <trip id="142" depart="99.40" departLane="best" departPos="random" departSpeed="random" from="S0" to="WA2"/>
    <trip id="143" depart="100.10" departLane="best" departPos="random" departSpeed="random" from="W" to="EA0"/>
    <trip id="144" depart="100.80" departLane="best" departPos="random" departSpeed="random" from="N" to="NA0"/>
    <trip id="145" depart="101.50" departLane="best" departPos="random" departSpeed="random" from="E" to="WA2"/>
    <trip id="146" depart="102.20" departLane="best" departPos="random" departSpeed="random" from="S0" to="NA0"/>
    <trip id="147" depart="102.90" departLane="best" departPos="random" departSpeed="random" from="W" to="SA2"/>
    <trip id="149" depart="104.30" departLane="best" departPos="random" departSpeed="random" from="E0" to="WA2"/>
    <trip id="150" depart="105.00" departLane="best" departPos="random" departSpeed="random" from="W" to="SA2"/>
    <trip id="151" depart="105.70" departLane="best" departPos="random" departSpeed="random" from="W" to="SA2"/>
    <trip id="152" depart="106.40" departLane="best" departPos="random" departSpeed="random" from="E0" to="EA0"/>
    <trip id="153" depart="107.10" departLane="best" departPos="random" departSpeed="random" from="N" to="WA2"/>
    <trip id="154" depart="107.80" departLane="best" departPos="random" departSpeed="random" from="W" to="WA2"/>
    <trip id="155" depart="108.50" departLane="best" departPos="random" departSpeed="random" from="W" to="EA0"/>
    <trip id="156" depart="109.20" departLane="best" departPos="random" departSpeed="random" from="N" to="EA0"/>
    <trip id="157" depart="109.90" departLane="best" departPos="random" departSpeed="random" from="W" to="WA2"/>
    <trip id="158" depart="110.60" departLane="best" departPos="random" departSpeed="random" from="N" to="SA2"/>
    <trip id="159" depart="111.30" departLane="best" departPos="random" departSpeed="random" from="E0" to="WA2"/>
    <trip id="161" depart="112.70" departLane="best" departPos="random" departSpeed="random" from="W" to="WA2"/>
    <trip id="162" depart="113.40" departLane="best" departPos="random" departSpeed="random" from="E0" to="WA0"/>
    <trip id="163" depart="114.10" departLane="best" departPos="random" departSpeed="random" from="N" to="WA2"/>
    <trip id="164" depart="114.80" departLane="best" departPos="random" departSpeed="random" from="W" to="WA2"/>
    <trip id="165" depart="115.50" departLane="best" departPos="random" departSpeed="random" from="W" to="NA0"/>
    <trip id="166" depart="116.20" departLane="best" departPos="random" departSpeed="random" from="W" to="EA0"/>
    <trip id="167" depart="116.90" departLane="best" departPos="random" departSpeed="random" from="W" to="WA2"/>
    <trip id="168" depart="117.60" departLane="best" departPos="random" departSpeed="random" from="E1" to="WA2"/>
    <trip id="169" depart="118.30" departLane="best" departPos="random" departSpeed="random" from="S0" to="NA0"/>
    <trip id="170" depart="119.00" departLane="best" departPos="random" departSpeed="random" from="W" to="EA0"/>
    <trip id="171" depart="119.70" departLane="best" departPos="random" departSpeed="random" from="E0" to="EA0"/>
    <trip id="172" depart="120.40" departLane="best" departPos="random" departSpeed="random" from="N" to="WA2"/>
    <trip id="174" depart="121.80" departLane="best" departPos="random" departSpeed="random" from="S0" to="NA0"/>
    <trip id="179" depart="125.30" departLane="best" departPos="random" departSpeed="random" from="E0" to="NA0"/>
    <trip id="180" depart="126.00" departLane="best" departPos="random" departSpeed="random" from="W" to="NA0"/>
    <trip id="181" depart="126.70" departLane="best" departPos="random" departSpeed="random" from="S0" to="SA1"/>
    <trip id="182" depart="127.40" departLane="best" departPos="random" departSpeed="random" from="N" to="SA2"/>
    <trip id="183" depart="128.10" departLane="best" departPos="random" departSpeed="random" from="N" to="SA2"/>
    <trip id="184" depart="128.80" departLane="best" departPos="random" departSpeed="random" from="E" to="WA2"/>
    <trip id="185" depart="129.50" departLane="best" departPos="random" departSpeed="random" from="S0" to="SA2"/>
    <trip id="186" depart="130.20" departLane="best" departPos="random" departSpeed="random" from="W" to="SA2"/>
    <trip id="187" depart="130.90" departLane="best" departPos="random" departSpeed="random" from="N" to="EA0"/>
    <trip id="188" depart="131.60" departLane="best" departPos="random" departSpeed="random" from="S1" to="NA0"/>
    <trip id="189" depart="132.30" departLane="best" departPos="random" departSpeed="random" from="N" to="WA2"/>
    <trip id="191" depart="133.70" departLane="best" departPos="random" departSpeed="random" from="N" to="NA0"/>
    <trip id="192" depart="134.40" departLane="best" departPos="random" departSpeed="random" from="N" to="NA0"/>
    <trip id="193" depart="135.10" departLane="best" departPos="random" departSpeed="random" from="E0" to="NA0"/>
    <trip id="195" depart="136.50" departLane="best" departPos="random" departSpeed="random" from="W" to="SA2"/>
    <trip id="196" depart="137.20" departLane="best" departPos="random" departSpeed="random" from="N" to="SA2"/>
    <trip id="197" depart="137.90" departLane="best" departPos="random" departSpeed="random" from="E" to="NA0"/>
    <trip id="198" depart="138.60" departLane="best" departPos="random" departSpeed="random" from="N" to="SA2"/>
    <trip id="199" depart="139.30" departLane="best" departPos="random" departSpeed="random" from="S0" to="S1"/>
    <trip id="200" depart="140.00" departLane="best" departPos="random" departSpeed="random" from="S" to="EA0"/>
    <trip id="201" depart="140.70" departLane="best" departPos="random" departSpeed="random" from="S0" to="WA2"/>
    <trip id="202" depart="141.40" departLane="best" departPos="random" departSpeed="random" from="W" to="EA0"/>
    <trip id="203" depart="142.10" departLane="best" departPos="random" departSpeed="random" from="E0" to="SA1"/>
    <trip id="204" depart="142.80" departLane="best" departPos="random" departSpeed="random" from="S0" to="NA0"/>
    <trip id="205" depart="143.50" departLane="best" departPos="random" departSpeed="random" from="W" to="WA1"/>
    <trip id="206" depart="144.20" departLane="best" departPos="random" departSpeed="random" from="S1" to="EA0"/>
    <trip id="207" depart="144.90" departLane="best" departPos="random" departSpeed="random" from="E0" to="E1"/>
    <trip id="209" depart="146.30" departLane="best" departPos="random" departSpeed="random" from="W" to="EA0"/>
    <trip id="210" depart="147.00" departLane="best" departPos="random" departSpeed="random" from="N" to="SA2"/>
    <trip id="211" depart="147.70" departLane="best" departPos="random" departSpeed="random" from="E0" to="SA2"/>
    <trip id="212" depart="148.40" departLane="best" departPos="random" departSpeed="random" from="S0" to="NA0"/>
    <trip id="214" depart="149.80" departLane="best" departPos="random" departSpeed="random" from="W" to="WA2"/>
    <trip id="215" depart="150.50" departLane="best" departPos="random" departSpeed="random" from="E0" to="NA0"/>
    <trip id="216" depart="151.20" departLane="best" departPos="random" departSpeed="random" from="E0" to="WA2"/>
    <trip id="217" depart="151.90" departLane="best" departPos="random" departSpeed="random" from="S0" to="EA0"/>
    <trip id="218" depart="152.60" departLane="best" departPos="random" departSpeed="random" from="N" to="WA2"/>
    <trip id="221" depart="154.70" departLane="best" departPos="random" departSpeed="random" from="S0" to="WA2"/>
    <trip id="222" depart="155.40" departLane="best" departPos="random" departSpeed="random" from="W" to="SA2"/>
    <trip id="223" depart="156.10" departLane="best" departPos="random" departSpeed="random" from="SA1" to="SA1"/>
    <trip id="224" depart="156.80" departLane="best" departPos="random" departSpeed="random" from="W" to="SA2"/>
    <trip id="225" depart="157.50" departLane="best" departPos="random" departSpeed="random" from="W" to="WA1"/>
    <trip id="226" depart="158.20" departLane="best" departPos="random" departSpeed="random" from="S0" to="NA0"/>
    <trip id="227" depart="158.90" departLane="best" departPos="random" departSpeed="random" from="N" to="SA2"/>
    <trip id="228" depart="159.60" departLane="best" departPos="random" departSpeed="random" from="W" to="SA2"/>
    <trip id="229" depart="160.30" departLane="best" departPos="random" departSpeed="random" from="S0" to="NA0"/>
    <trip id="230" depart="161.00" departLane="best" departPos="random" departSpeed="random" from="E0" to="NA0"/>
    <trip id="231" depart="161.70" departLane="best" departPos="random" departSpeed="random" from="N" to="NA0"/>
    <trip id="232" depart="162.40" departLane="best" departPos="random" departSpeed="random" from="S0" to="EA0"/>
    <trip id="233" depart="163.10" departLane="best" departPos="random" departSpeed="random" from="E1" to="SA2"/>
    <trip id="235" depart="164.50" departLane="best" departPos="random" departSpeed="random" from="N" to="SA2"/>
    <trip id="236" depart="165.20" departLane="best" departPos="random" departSpeed="random" from="N" to="EA0"/>
    <trip id="237" depart="165.90" departLane="best" departPos="random" departSpeed="random" from="N" to="WA2"/>
    <trip id="238" depart="166.60" departLane="best" departPos="random" departSpeed="random" from="S0" to="SA2"/>
    <trip id="239" depart="167.30" departLane="best" departPos="random" departSpeed="random" from="W" to="WA2"/>
    <trip id="241" depart="168.70" departLane="best" departPos="random" departSpeed="random" from="N" to="WA1"/>
    <trip id="242" depart="169.40" departLane="best" departPos="random" departSpeed="random" from="W" to="WA2"/>
    <trip id="243" depart="170.10" departLane="best" departPos="random" departSpeed="random" from="N" to="WA1"/>
    <trip id="244" depart="170.80" departLane="best" departPos="random" departSpeed="random" from="S0" to="SA2"/>
    <trip id="245" depart="171.50" departLane="best" departPos="random" departSpeed="random" from="E1" to="EA0"/>
    <trip id="247" depart="172.90" departLane="best" departPos="random" departSpeed="random" from="N" to="SA2"/>
    <trip id="248" depart="173.60" departLane="best" departPos="random" departSpeed="random" from="N" to="EA0"/>
    <trip id="249" depart="174.30" departLane="best" departPos="random" departSpeed="random" from="S0" to="EA0"/>
    <trip id="251" depart="175.70" departLane="best" departPos="random" departSpeed="random" from="N" to="SA2"/>
    <trip id="252" depart="176.40" departLane="best" departPos="random" departSpeed="random" from="E0" to="SA2"/>
    <trip id="254" depart="177.80" departLane="best" departPos="random" departSpeed="random" from="E0" to="NA0"/>
    <trip id="255" depart="178.50" departLane="best" departPos="random" departSpeed="random" from="E0" to="NA0"/>
    <trip id="256" depart="179.20" departLane="best" departPos="random" departSpeed="random" from="W" to="NA0"/>
    <trip id="257" depart="179.90" departLane="best" departPos="random" departSpeed="random" from="W" to="WA2"/>
    <trip id="258" depart="180.60" departLane="best" departPos="random" departSpeed="random" from="N" to="EA0"/>
    <trip id="261" depart="182.70" departLane="best" departPos="random" departSpeed="random" from="S0" to="WA2"/>
    <trip id="262" depart="183.40" departLane="best" departPos="random" departSpeed="random" from="S0" to="WA1"/>
    <trip id="264" depart="184.80" departLane="best" departPos="random" departSpeed="random" from="E0" to="EA0"/>
    <trip id="265" depart="185.50" departLane="best" departPos="random" departSpeed="random" from="E0" to="SA2"/>
    <trip id="266" depart="186.20" departLane="best" departPos="random" departSpeed="random" from="S0" to="EA0"/>
    <trip id="268" depart="187.60" departLane="best" departPos="random" departSpeed="random" from="E0" to="SA2"/>
    <trip id="269" depart="188.30" departLane="best" departPos="random" departSpeed="random" from="W" to="EA0"/>
    <trip id="271" depart="189.70" departLane="best" departPos="random" departSpeed="random" from="E0" to="E1"/>
    <trip id="272" depart="190.40" departLane="best" departPos="random" departSpeed="random" from="N" to="SA2"/>
    <trip id="275" depart="192.50" departLane="best" departPos="random" departSpeed="random" from="SA0" to="SA2"/>
    <trip id="276" depart="193.20" departLane="best" departPos="random" departSpeed="random" from="E0" to="WA2"/>
    <trip id="277" depart="193.90" departLane="best" departPos="random" departSpeed="random" from="W" to="SA2"/>
    <trip id="279" depart="195.30" departLane="best" departPos="random" departSpeed="random" from="W" to="NA0"/>
    <trip id="280" depart="196.00" departLane="best" departPos="random" departSpeed="random" from="N" to="NA0"/>
    <trip id="281" depart="196.70" departLane="best" departPos="random" departSpeed="random" from="S0" to="NA0"/>
    <trip id="282" depart="197.40" departLane="best" departPos="random" departSpeed="random" from="W" to="WA2"/>
    <trip id="283" depart="198.10" departLane="best" departPos="random" departSpeed="random" from="E0" to="salida_5"/>
    <trip id="284" depart="198.80" departLane="best" departPos="random" departSpeed="random" from="S0" to="WA2"/>
    <trip id="287" depart="200.90" departLane="best" departPos="random" departSpeed="random" from="N" to="WA2"/>
    <trip id="288" depart="201.60" departLane="best" departPos="random" departSpeed="random" from="S0" to="SA0"/>
    <trip id="289" depart="202.30" departLane="best" departPos="random" departSpeed="random" from="N" to="WA0"/>
    <trip id="290" depart="203.00" departLane="best" departPos="random" departSpeed="random" from="N" to="WA2"/>
    <trip id="291" depart="203.70" departLane="best" departPos="random" departSpeed="random" from="W" to="EA0"/>
    <trip id="292" depart="204.40" departLane="best" departPos="random" departSpeed="random" from="W" to="NA0"/>
    <trip id="293" depart="205.10" departLane="best" departPos="random" departSpeed="random" from="S0" to="SA2"/>
    <trip id="295" depart="206.50" departLane="best" departPos="random" departSpeed="random" from="W" to="EA0"/>
    <trip id="296" depart="207.20" departLane="best" departPos="random" departSpeed="random" from="E0" to="WA2"/>
    <trip id="297" depart="207.90" departLane="best" departPos="random" departSpeed="random" from="N" to="WA2"/>
    <trip id="299" depart="209.30" departLane="best" departPos="random" departSpeed="random" from="E" to="WA2"/>
    <trip id="300" depart="210.00" departLane="best" departPos="random" departSpeed="random" from="E0" to="WA0"/>
    <trip id="301" depart="210.70" departLane="best" departPos="random" departSpeed="random" from="S0" to="WA1"/>
    <trip id="302" depart="211.40" departLane="best" departPos="random" departSpeed="random" from="SA0" to="SA2"/>
    <trip id="303" depart="212.10" departLane="best" departPos="random" departSpeed="random" from="S0" to="WA2"/>
    <trip id="304" depart="212.80" departLane="best" departPos="random" departSpeed="random" from="E0" to="EA0"/>
    <trip id="306" depart="214.20" departLane="best" departPos="random" departSpeed="random" from="S0" to="S1"/>
    <trip id="307" depart="214.90" departLane="best" departPos="random" departSpeed="random" from="S0" to="NA0"/>
    <trip id="308" depart="215.60" departLane="best" departPos="random" departSpeed="random" from="W" to="NA0"/>
    <trip id="310" depart="217.00" departLane="best" departPos="random" departSpeed="random" from="N" to="EA0"/>
    <trip id="311" depart="217.70" departLane="best" departPos="random" departSpeed="random" from="E0" to="EA0"/>